REMARK SMILES Cc1cccc(OCCNC(=O)CSc2nnc(C)n2-c2ccccc2C)c1
REMARK SMILES IDX 10 1 11 2 12 3 9 5 8 6 7 7 6 8 2 9 3 10 28 11 4 12 5 13 1 14
REMARK SMILES IDX 13 15 14 16 15 17 16 18 20 19 17 20 18 21 19 22 21 23 22 24
REMARK SMILES IDX 26 25 23 26 25 27 24 28 27 29
REMARK H PARENT 10 4
ROOT
ATOM      1  N   UNL     1       0.909   1.054  -0.146  1.00  0.00    -0.352 N 
ATOM      2  C   UNL     1       0.195   2.231  -0.241  1.00  0.00     0.230 C 
ATOM      3  O   UNL     1       0.092   3.035   0.683  1.00  0.00    -0.274 OA
ATOM      4  H   UNL     1       0.608   0.306  -0.769  1.00  0.00     0.163 HD
ENDROOT
BRANCH   1   5
ATOM      5  C   UNL     1       1.523   0.648   1.107  1.00  0.00     0.157 C 
BRANCH   5   6
ATOM      6  C   UNL     1       2.638  -0.379   0.899  1.00  0.00     0.250 C 
BRANCH   6   7
ATOM      7  O   UNL     1       3.751   0.284   0.287  1.00  0.00    -0.492 OA
BRANCH   7   8
ATOM      8  C   UNL     1       4.908  -0.430   0.143  1.00  0.00     0.119 A 
ATOM      9  C   UNL     1       7.274  -0.260  -0.434  1.00  0.00    -0.047 A 
ATOM     10  C   UNL     1       7.412  -1.637  -0.224  1.00  0.00     0.003 A 
ATOM     11  C   UNL     1       6.017   0.333  -0.242  1.00  0.00     0.049 A 
ATOM     12  C   UNL     1       6.307  -2.405   0.151  1.00  0.00     0.004 A 
ATOM     13  C   UNL     1       5.056  -1.805   0.333  1.00  0.00     0.046 A 
ATOM     14  C   UNL     1       8.466   0.577  -0.803  1.00  0.00     0.044 C 
ENDBRANCH   7   8
ENDBRANCH   6   7
ENDBRANCH   5   6
ENDBRANCH   1   5
BRANCH   2  15
ATOM     15  C   UNL     1      -0.466   2.447  -1.593  1.00  0.00     0.178 C 
BRANCH  15  16
ATOM     16  S   UNL     1      -2.254   2.162  -1.485  1.00  0.00    -0.076 SA
BRANCH  16  17
ATOM     17  C   UNL     1      -2.297   0.483  -1.056  1.00  0.00     0.196 A 
ATOM     18  N   UNL     1      -1.334  -0.382  -1.296  1.00  0.00    -0.123 NA
ATOM     19  N   UNL     1      -3.384  -0.157  -0.494  1.00  0.00    -0.274 N 
ATOM     20  N   UNL     1      -1.746  -1.605  -0.839  1.00  0.00    -0.134 NA
ATOM     21  C   UNL     1      -2.962  -1.471  -0.341  1.00  0.00     0.135 A 
ATOM     22  C   UNL     1      -3.717  -2.533   0.368  1.00  0.00     0.090 C 
BRANCH  19  23
ATOM     23  C   UNL     1      -4.608   0.401  -0.049  1.00  0.00     0.052 A 
ATOM     24  C   UNL     1      -4.550   1.421   0.916  1.00  0.00     0.027 A 
ATOM     25  C   UNL     1      -5.849  -0.067  -0.526  1.00  0.00    -0.027 A 
ATOM     26  C   UNL     1      -5.726   1.952   1.441  1.00  0.00     0.002 A 
ATOM     27  C   UNL     1      -7.021   0.477   0.030  1.00  0.00     0.005 A 
ATOM     28  C   UNL     1      -6.960   1.476   1.004  1.00  0.00     0.000 A 
ATOM     29  C   UNL     1      -6.012  -1.079  -1.628  1.00  0.00     0.046 C 
ENDBRANCH  19  23
ENDBRANCH  16  17
ENDBRANCH  15  16
ENDBRANCH   2  15
TORSDOF 8
