REMARK SMILES O=C(NCCOc1ccccc1)c1nc(-c2ccccc2)n(-c2ccccc2)n1
REMARK SMILES IDX 4 1 3 2 2 3 1 4 13 6 14 7 29 8 15 9 22 10 16 11 17 12 21 13
REMARK SMILES IDX 18 14 20 15 19 16 23 17 24 18 28 19 25 20 27 21 26 22 5 23
REMARK SMILES IDX 6 24 7 25 8 26 12 27 9 28 11 29 10 30
REMARK H PARENT 3 5
ROOT
ATOM      1  C   UNL     1       2.849   1.655  -0.236  1.00  0.00     0.157 C 
ENDROOT
BRANCH   1   2
ATOM      2  N   UNL     1       1.518   1.163   0.052  1.00  0.00    -0.346 N 
ATOM      3  C   UNL     1       0.510   2.016   0.472  1.00  0.00     0.291 C 
ATOM      4  O   UNL     1       0.712   3.180   0.808  1.00  0.00    -0.266 OA
ATOM      5  H   UNL     1       1.190   0.301  -0.377  1.00  0.00     0.164 HD
BRANCH   3   6
ATOM      6  C   UNL     1      -0.823   1.376   0.445  1.00  0.00     0.240 A 
ATOM      7  N   UNL     1      -0.996   0.076   0.022  1.00  0.00    -0.202 NA
ATOM      8  N   UNL     1      -1.962   1.991   0.781  1.00  0.00    -0.140 NA
ATOM      9  C   UNL     1      -2.303  -0.113   0.086  1.00  0.00     0.164 A 
ATOM     10  N   UNL     1      -2.898   1.014   0.656  1.00  0.00    -0.212 N 
BRANCH   9  11
ATOM     11  C   UNL     1      -2.965  -1.305  -0.436  1.00  0.00     0.019 A 
ATOM     12  C   UNL     1      -2.598  -2.570   0.042  1.00  0.00     0.012 A 
ATOM     13  C   UNL     1      -3.928  -1.212  -1.452  1.00  0.00     0.012 A 
ATOM     14  C   UNL     1      -3.211  -3.720  -0.459  1.00  0.00     0.001 A 
ATOM     15  C   UNL     1      -4.539  -2.363  -1.952  1.00  0.00     0.001 A 
ATOM     16  C   UNL     1      -4.183  -3.615  -1.452  1.00  0.00     0.000 A 
ENDBRANCH   9  11
BRANCH  10  17
ATOM     17  C   UNL     1      -4.230   1.255   1.106  1.00  0.00     0.067 A 
ATOM     18  C   UNL     1      -4.621   2.577   1.386  1.00  0.00     0.028 A 
ATOM     19  C   UNL     1      -5.150   0.220   1.318  1.00  0.00     0.028 A 
ATOM     20  C   UNL     1      -5.915   2.857   1.832  1.00  0.00     0.002 A 
ATOM     21  C   UNL     1      -6.444   0.507   1.765  1.00  0.00     0.002 A 
ATOM     22  C   UNL     1      -6.827   1.823   2.016  1.00  0.00     0.000 A 
ENDBRANCH  10  17
ENDBRANCH   3   6
ENDBRANCH   1   2
BRANCH   1  23
ATOM     23  C   UNL     1       3.894   0.542  -0.257  1.00  0.00     0.250 C 
BRANCH  23  24
ATOM     24  O   UNL     1       5.150   1.110  -0.622  1.00  0.00    -0.492 OA
BRANCH  24  25
ATOM     25  C   UNL     1       6.209   0.253  -0.746  1.00  0.00     0.119 A 
ATOM     26  C   UNL     1       7.396   0.853  -1.174  1.00  0.00     0.046 A 
ATOM     27  C   UNL     1       6.193  -1.117  -0.484  1.00  0.00     0.046 A 
ATOM     28  C   UNL     1       8.556   0.095  -1.345  1.00  0.00     0.004 A 
ATOM     29  C   UNL     1       7.355  -1.878  -0.655  1.00  0.00     0.004 A 
ATOM     30  C   UNL     1       8.534  -1.273  -1.087  1.00  0.00     0.000 A 
ENDBRANCH  24  25
ENDBRANCH  23  24
ENDBRANCH   1  23
TORSDOF 7
