REMARK SMILES CCOc1ccc(-n2nc(C(=O)NCCCOC)nc2-c2cccc(C)c2)cc1
REMARK SMILES IDX 11 1 12 2 13 3 10 5 8 6 9 7 20 8 19 9 7 10 4 11 5 12 29 13
REMARK SMILES IDX 6 14 28 15 3 16 2 17 1 18 21 19 22 20 27 21 23 22 25 23
REMARK SMILES IDX 24 24 26 25 14 26 15 27 16 28 17 29 18 30
REMARK H PARENT 13 4
ROOT
ATOM      1  C   UNL     1       3.184   0.014  -0.088  1.00  0.00     0.290 C 
ATOM      2  O   UNL     1       4.128   0.785   0.059  1.00  0.00    -0.266 OA
ATOM      3  N   UNL     1       3.338  -1.313  -0.447  1.00  0.00    -0.349 N 
ATOM      4  H   UNL     1       2.484  -1.862  -0.489  1.00  0.00     0.163 HD
ENDROOT
BRANCH   1   5
ATOM      5  C   UNL     1       1.768   0.402   0.104  1.00  0.00     0.240 A 
ATOM      6  N   UNL     1      -0.348   0.301   0.153  1.00  0.00    -0.212 N 
ATOM      7  N   UNL     1       0.757  -0.475  -0.036  1.00  0.00    -0.140 NA
ATOM      8  C   UNL     1       0.050   1.569   0.572  1.00  0.00     0.164 A 
ATOM      9  N   UNL     1       1.362   1.662   0.460  1.00  0.00    -0.202 NA
BRANCH   6  10
ATOM     10  C   UNL     1      -1.640  -0.245  -0.109  1.00  0.00     0.067 A 
ATOM     11  C   UNL     1      -4.159  -1.402  -0.638  1.00  0.00     0.119 A 
ATOM     12  C   UNL     1      -4.025  -0.019  -0.531  1.00  0.00     0.048 A 
ATOM     13  C   UNL     1      -3.030  -2.205  -0.489  1.00  0.00     0.048 A 
ATOM     14  C   UNL     1      -2.772   0.558  -0.275  1.00  0.00     0.032 A 
ATOM     15  C   UNL     1      -1.778  -1.637  -0.234  1.00  0.00     0.032 A 
BRANCH  11  16
ATOM     16  O   UNL     1      -5.319  -2.083  -0.881  1.00  0.00    -0.494 OA
BRANCH  16  17
ATOM     17  C   UNL     1      -6.475  -1.307  -1.190  1.00  0.00     0.226 C 
ATOM     18  C   UNL     1      -7.614  -2.264  -1.493  1.00  0.00     0.049 C 
ENDBRANCH  16  17
ENDBRANCH  11  16
ENDBRANCH   6  10
BRANCH   8  19
ATOM     19  C   UNL     1      -0.789   2.637   1.110  1.00  0.00     0.020 A 
ATOM     20  C   UNL     1      -1.623   2.419   2.216  1.00  0.00     0.012 A 
ATOM     21  C   UNL     1      -0.732   3.917   0.540  1.00  0.00     0.015 A 
ATOM     22  C   UNL     1      -2.409   3.456   2.720  1.00  0.00     0.001 A 
ATOM     23  C   UNL     1      -1.533   4.958   1.029  1.00  0.00    -0.050 A 
ATOM     24  C   UNL     1      -2.362   4.720   2.131  1.00  0.00     0.003 A 
ATOM     25  C   UNL     1      -1.454   6.326   0.418  1.00  0.00     0.044 C 
ENDBRANCH   8  19
ENDBRANCH   1   5
BRANCH   3  26
ATOM     26  C   UNL     1       4.627  -1.946  -0.616  1.00  0.00     0.118 C 
BRANCH  26  27
ATOM     27  C   UNL     1       5.190  -2.439   0.716  1.00  0.00     0.050 C 
BRANCH  27  28
ATOM     28  C   UNL     1       6.406  -3.336   0.518  1.00  0.00     0.161 C 
BRANCH  28  29
ATOM     29  O   UNL     1       7.433  -2.609  -0.149  1.00  0.00    -0.385 OA
ATOM     30  C   UNL     1       8.575  -3.417  -0.398  1.00  0.00     0.194 C 
ENDBRANCH  28  29
ENDBRANCH  27  28
ENDBRANCH  26  27
ENDBRANCH   3  26
TORSDOF 9
