REMARK SMILES COCCOc1cc(C)ccc1NC(=O)NCCc1nnc2n1CCCCC2
REMARK SMILES IDX 13 1 14 2 15 3 16 4 12 7 6 8 7 9 8 10 11 11 10 12 9 13 5 14
REMARK SMILES IDX 4 15 3 16 2 17 1 18 17 19 18 20 19 21 20 22 23 23 21 24
REMARK SMILES IDX 22 25 24 26 25 27 28 29 27 30 26 31
REMARK H PARENT 13 5 16 6
REMARK Flexibility Score:   71.900
ROOT
ATOM      1  N   UNL     1       1.694   0.591  -1.582  1.00  0.00    -0.305 N 
ATOM      2  C   UNL     1       0.510   0.878  -2.210  1.00  0.00     0.319 C 
ATOM      3  O   UNL     1       0.044   1.989  -2.428  1.00  0.00    -0.249 OA
ATOM      4  N   UNL     1      -0.134  -0.280  -2.594  1.00  0.00    -0.337 N 
ATOM      5  H   UNL     1       2.019  -0.369  -1.637  1.00  0.00     0.172 HD
ATOM      6  H   UNL     1       0.026  -1.083  -1.996  1.00  0.00     0.165 HD
ENDROOT
BRANCH   1   7
ATOM      7  C   UNL     1       2.608   1.480  -0.978  1.00  0.00     0.085 A 
ATOM      8  C   UNL     1       3.814   0.931  -0.505  1.00  0.00     0.143 A 
ATOM      9  C   UNL     1       4.769   1.746   0.111  1.00  0.00     0.052 A 
ATOM     10  C   UNL     1       4.525   3.116   0.277  1.00  0.00    -0.047 A 
ATOM     11  C   UNL     1       2.361   2.841  -0.799  1.00  0.00     0.030 A 
ATOM     12  C   UNL     1       3.311   3.651  -0.169  1.00  0.00     0.006 A 
ATOM     13  C   UNL     1       5.533   3.986   0.967  1.00  0.00     0.044 C 
BRANCH   8  14
ATOM     14  O   UNL     1       4.002  -0.411  -0.738  1.00  0.00    -0.489 OA
BRANCH  14  15
ATOM     15  C   UNL     1       4.684  -1.119   0.305  1.00  0.00     0.258 C 
BRANCH  15  16
ATOM     16  C   UNL     1       4.378  -2.611   0.152  1.00  0.00     0.201 C 
BRANCH  16  17
ATOM     17  O   UNL     1       2.980  -2.920   0.262  1.00  0.00    -0.381 OA
ATOM     18  C   UNL     1       2.467  -2.805   1.586  1.00  0.00     0.195 C 
ENDBRANCH  16  17
ENDBRANCH  15  16
ENDBRANCH  14  15
ENDBRANCH   8  14
ENDBRANCH   1   7
BRANCH   4  19
ATOM     19  C   UNL     1      -1.452  -0.231  -3.204  1.00  0.00     0.126 C 
BRANCH  19  20
ATOM     20  C   UNL     1      -2.561   0.185  -2.231  1.00  0.00     0.099 C 
BRANCH  20  21
ATOM     21  C   UNL     1      -2.706  -0.760  -1.086  1.00  0.00     0.134 A 
ATOM     22  N   UNL     1      -2.202  -1.977  -0.994  1.00  0.00    -0.135 NA
ATOM     23  N   UNL     1      -3.395  -0.492   0.065  1.00  0.00    -0.315 N 
ATOM     24  N   UNL     1      -2.554  -2.505   0.226  1.00  0.00    -0.135 NA
ATOM     25  C   UNL     1      -3.274  -1.605   0.858  1.00  0.00     0.132 A 
BRANCH  23  26
ATOM     26  C   UNL     1      -4.125   0.691   0.452  1.00  0.00     0.125 C 
BRANCH  26  27
ATOM     27  C   UNL     1      -5.627   0.471   0.673  1.00  0.00     0.022 CG0
ATOM     28  G   UNL     1      -6.096  -0.961   0.955  1.00  0.00     0.000 G0
ENDBRANCH  26  27
ENDBRANCH  23  26
BRANCH  25  29
ATOM     29  C   UNL     1      -3.909  -1.697   2.194  1.00  0.00     0.077 C 
BRANCH  29  30
ATOM     30  C   UNL     1      -5.440  -1.685   2.137  1.00  0.00     0.008 C 
BRANCH  30  31
ATOM     31  C   UNL     1      -6.096  -0.961   0.955  1.00  0.00     0.002 CG0
ATOM     32  G   UNL     1      -5.627   0.471   0.673  1.00  0.00     0.000 G0
ENDBRANCH  30  31
ENDBRANCH  29  30
ENDBRANCH  25  29
ENDBRANCH  20  21
ENDBRANCH  19  20
ENDBRANCH   4  19
TORSDOF 8
