REMARK SMILES CCNC(=O)CSc1nnc(Cc2ccccc2)n1-c1ccc(OCC)cc1
REMARK SMILES IDX 8 1 9 2 10 3 11 4 19 5 7 6 6 7 4 8 3 9 5 11 2 12 1 13 20 14
REMARK SMILES IDX 21 15 28 16 22 17 27 18 23 19 24 20 25 21 26 22 12 23 13 24
REMARK SMILES IDX 14 25 18 26 15 27 17 28 16 29
REMARK H PARENT 3 10
ROOT
ATOM      1  C   UNL     1       1.732   0.912   1.002  1.00  0.00     0.196 A 
ATOM      2  N   UNL     1       2.319   1.895   1.644  1.00  0.00    -0.123 NA
ATOM      3  N   UNL     1       1.345   2.730   2.113  1.00  0.00    -0.134 NA
ATOM      4  C   UNL     1       0.172   2.251   1.742  1.00  0.00     0.142 A 
ATOM      5  N   UNL     1       0.356   1.051   1.061  1.00  0.00    -0.274 N 
ENDROOT
BRANCH   1   6
ATOM      6  S   UNL     1       2.574  -0.461   0.356  1.00  0.00    -0.076 SA
BRANCH   6   7
ATOM      7  C   UNL     1       4.265   0.198   0.297  1.00  0.00     0.178 C 
BRANCH   7   8
ATOM      8  C   UNL     1       5.187  -0.866  -0.268  1.00  0.00     0.230 C 
ATOM      9  N   UNL     1       5.663  -1.759   0.672  1.00  0.00    -0.356 N 
ATOM     10  H   UNL     1       5.238  -1.760   1.591  1.00  0.00     0.163 HD
ATOM     11  O   UNL     1       5.473  -0.927  -1.462  1.00  0.00    -0.274 OA
BRANCH   9  12
ATOM     12  C   UNL     1       6.473  -2.898   0.294  1.00  0.00     0.112 C 
ATOM     13  C   UNL     1       5.619  -4.059  -0.188  1.00  0.00     0.027 C 
ENDBRANCH   9  12
ENDBRANCH   7   8
ENDBRANCH   6   7
ENDBRANCH   1   6
BRANCH   5  14
ATOM     14  C   UNL     1      -0.646   0.189   0.547  1.00  0.00     0.050 A 
ATOM     15  C   UNL     1      -1.737  -0.169   1.347  1.00  0.00     0.030 A 
ATOM     16  C   UNL     1      -0.552  -0.304  -0.757  1.00  0.00     0.030 A 
ATOM     17  C   UNL     1      -2.733  -1.015   0.841  1.00  0.00     0.048 A 
ATOM     18  C   UNL     1      -1.553  -1.142  -1.255  1.00  0.00     0.048 A 
ATOM     19  C   UNL     1      -2.646  -1.503  -0.462  1.00  0.00     0.119 A 
BRANCH  19  20
ATOM     20  O   UNL     1      -3.546  -2.329  -1.075  1.00  0.00    -0.494 OA
BRANCH  20  21
ATOM     21  C   UNL     1      -4.656  -2.775  -0.299  1.00  0.00     0.226 C 
ATOM     22  C   UNL     1      -5.488  -3.704  -1.164  1.00  0.00     0.049 C 
ENDBRANCH  20  21
ENDBRANCH  19  20
ENDBRANCH   5  14
BRANCH   4  23
ATOM     23  C   UNL     1      -1.120   2.989   1.896  1.00  0.00     0.113 C 
BRANCH  23  24
ATOM     24  C   UNL     1      -1.682   3.489   0.583  1.00  0.00    -0.040 A 
ATOM     25  C   UNL     1      -2.917   3.027   0.107  1.00  0.00     0.004 A 
ATOM     26  C   UNL     1      -0.967   4.422  -0.185  1.00  0.00     0.004 A 
ATOM     27  C   UNL     1      -3.418   3.476  -1.115  1.00  0.00     0.000 A 
ATOM     28  C   UNL     1      -1.472   4.872  -1.405  1.00  0.00     0.000 A 
ATOM     29  C   UNL     1      -2.695   4.396  -1.872  1.00  0.00     0.000 A 
ENDBRANCH  23  24
ENDBRANCH   4  23
TORSDOF 9
