REMARK SMILES COc1ccccc1-n1c(Cc2ccccc2)nnc1SCC(=O)NC(C)C
REMARK SMILES IDX 21 1 20 2 9 3 10 4 18 5 19 6 8 7 3 8 4 9 5 10 7 11 6 12 2 13
REMARK SMILES IDX 1 14 11 15 12 16 13 17 17 18 14 19 16 20 15 21 22 22 23 23
REMARK SMILES IDX 25 24 24 25 26 27 27 28 28 29
REMARK H PARENT 25 26
ROOT
ATOM      1  S   UNL     1       1.970  -0.391  -1.476  1.00  0.00    -0.076 SA
ENDROOT
BRANCH   1   2
ATOM      2  C   UNL     1       0.818   0.281  -0.366  1.00  0.00     0.196 A 
ATOM      3  N   UNL     1      -0.401  -0.279  -0.036  1.00  0.00    -0.270 N 
ATOM      4  C   UNL     1      -0.913   0.579   0.929  1.00  0.00     0.142 A 
ATOM      5  N   UNL     1      -0.021   1.516   1.201  1.00  0.00    -0.134 NA
ATOM      6  N   UNL     1       1.061   1.330   0.386  1.00  0.00    -0.123 NA
BRANCH   3   7
ATOM      7  C   UNL     1      -1.025  -1.419  -0.599  1.00  0.00     0.091 A 
ATOM      8  C   UNL     1      -1.451  -2.480   0.222  1.00  0.00     0.142 A 
ATOM      9  C   UNL     1      -2.103  -3.565  -0.372  1.00  0.00     0.048 A 
ATOM     10  C   UNL     1      -2.304  -3.602  -1.756  1.00  0.00     0.004 A 
ATOM     11  C   UNL     1      -1.211  -1.466  -1.989  1.00  0.00     0.031 A 
ATOM     12  C   UNL     1      -1.854  -2.559  -2.563  1.00  0.00     0.002 A 
BRANCH   8  13
ATOM     13  O   UNL     1      -1.150  -2.397   1.556  1.00  0.00    -0.495 OA
ATOM     14  C   UNL     1      -1.432  -3.526   2.371  1.00  0.00     0.278 C 
ENDBRANCH   8  13
ENDBRANCH   3   7
BRANCH   4  15
ATOM     15  C   UNL     1      -2.305   0.552   1.472  1.00  0.00     0.113 C 
BRANCH  15  16
ATOM     16  C   UNL     1      -3.350   0.956   0.453  1.00  0.00    -0.040 A 
ATOM     17  C   UNL     1      -4.315   0.039   0.011  1.00  0.00     0.004 A 
ATOM     18  C   UNL     1      -3.365   2.261  -0.065  1.00  0.00     0.004 A 
ATOM     19  C   UNL     1      -5.275   0.420  -0.929  1.00  0.00     0.000 A 
ATOM     20  C   UNL     1      -4.324   2.638  -1.006  1.00  0.00     0.000 A 
ATOM     21  C   UNL     1      -5.281   1.719  -1.434  1.00  0.00     0.000 A 
ENDBRANCH  15  16
ENDBRANCH   4  15
ENDBRANCH   1   2
BRANCH   1  22
ATOM     22  C   UNL     1       2.752   1.125  -2.107  1.00  0.00     0.178 C 
BRANCH  22  23
ATOM     23  C   UNL     1       3.877   1.707  -1.257  1.00  0.00     0.230 C 
ATOM     24  N   UNL     1       4.074   1.171  -0.003  1.00  0.00    -0.353 N 
ATOM     25  O   UNL     1       4.566   2.632  -1.698  1.00  0.00    -0.274 OA
ATOM     26  H   UNL     1       3.298   0.632   0.372  1.00  0.00     0.163 HD
BRANCH  24  27
ATOM     27  C   UNL     1       5.004   1.755   0.954  1.00  0.00     0.075 C 
ATOM     28  C   UNL     1       6.457   1.452   0.578  1.00  0.00     0.030 C 
ATOM     29  C   UNL     1       4.706   1.222   2.355  1.00  0.00     0.030 C 
ENDBRANCH  24  27
ENDBRANCH  22  23
ENDBRANCH   1  22
TORSDOF 8
