REMARK SMILES CCCNC(=O)CSc1nnc(Cc2ccccc2)n1-c1ccccc1OC
REMARK SMILES IDX 7 1 5 2 4 3 6 5 3 6 2 7 1 8 8 9 9 10 10 11 20 12 11 13 12 14
REMARK SMILES IDX 21 15 22 16 26 17 23 18 25 19 24 20 27 21 28 22 13 23 14 24
REMARK SMILES IDX 15 25 19 26 16 27 18 28 17 29
REMARK H PARENT 4 4
ROOT
ATOM      1  C   UNL     1       2.416  -1.003   1.700  1.00  0.00     0.178 C 
ENDROOT
BRANCH   1   2
ATOM      2  C   UNL     1       2.883  -1.070   0.254  1.00  0.00     0.230 C 
ATOM      3  N   UNL     1       3.670  -0.024  -0.176  1.00  0.00    -0.355 N 
ATOM      4  H   UNL     1       3.601   0.844   0.352  1.00  0.00     0.163 HD
ATOM      5  O   UNL     1       2.623  -2.047  -0.448  1.00  0.00    -0.274 OA
BRANCH   3   6
ATOM      6  C   UNL     1       4.095   0.088  -1.556  1.00  0.00     0.115 C 
BRANCH   6   7
ATOM      7  C   UNL     1       5.338  -0.750  -1.832  1.00  0.00     0.018 C 
ATOM      8  C   UNL     1       5.823  -0.576  -3.263  1.00  0.00     0.006 C 
ENDBRANCH   6   7
ENDBRANCH   3   6
ENDBRANCH   1   2
BRANCH   1   9
ATOM      9  S   UNL     1       1.992   0.658   2.293  1.00  0.00    -0.076 SA
BRANCH   9  10
ATOM     10  C   UNL     1       0.954   1.239   1.032  1.00  0.00     0.196 A 
ATOM     11  N   UNL     1       1.307   2.192   0.200  1.00  0.00    -0.123 NA
ATOM     12  N   UNL     1      -0.271   0.716   0.676  1.00  0.00    -0.270 N 
ATOM     13  N   UNL     1       0.303   2.330  -0.722  1.00  0.00    -0.134 NA
ATOM     14  C   UNL     1      -0.652   1.463  -0.430  1.00  0.00     0.142 A 
BRANCH  12  15
ATOM     15  C   UNL     1      -0.989  -0.323   1.305  1.00  0.00     0.091 A 
ATOM     16  C   UNL     1      -1.337  -0.184   2.656  1.00  0.00     0.031 A 
ATOM     17  C   UNL     1      -1.302  -1.493   0.594  1.00  0.00     0.142 A 
ATOM     18  C   UNL     1      -2.041  -1.205   3.290  1.00  0.00     0.002 A 
ATOM     19  C   UNL     1      -2.019  -2.501   1.243  1.00  0.00     0.048 A 
ATOM     20  C   UNL     1      -2.386  -2.357   2.584  1.00  0.00     0.004 A 
BRANCH  17  21
ATOM     21  O   UNL     1      -0.857  -1.579  -0.696  1.00  0.00    -0.495 OA
ATOM     22  C   UNL     1      -0.648  -2.890  -1.211  1.00  0.00     0.278 C 
ENDBRANCH  17  21
ENDBRANCH  12  15
BRANCH  14  23
ATOM     23  C   UNL     1      -1.985   1.397  -1.102  1.00  0.00     0.113 C 
BRANCH  23  24
ATOM     24  C   UNL     1      -3.110   1.917  -0.232  1.00  0.00    -0.040 A 
ATOM     25  C   UNL     1      -3.150   3.270   0.140  1.00  0.00     0.004 A 
ATOM     26  C   UNL     1      -4.117   1.057   0.230  1.00  0.00     0.004 A 
ATOM     27  C   UNL     1      -4.171   3.749   0.962  1.00  0.00     0.000 A 
ATOM     28  C   UNL     1      -5.136   1.538   1.054  1.00  0.00     0.000 A 
ATOM     29  C   UNL     1      -5.162   2.882   1.421  1.00  0.00     0.000 A 
ENDBRANCH  23  24
ENDBRANCH  14  23
ENDBRANCH   9  10
ENDBRANCH   1   9
TORSDOF 9
