REMARK SMILES CCOc1ccc(-n2c(C)nnc2SCC(=O)NCc2ccccc2)cc1
REMARK SMILES IDX 8 1 9 2 10 3 11 4 12 5 13 6 7 7 4 8 5 9 27 10 6 11 26 12
REMARK SMILES IDX 3 13 2 14 1 15 14 16 15 17 16 18 18 19 17 20 19 22 20 23
REMARK SMILES IDX 21 24 25 25 22 26 24 27 23 28
REMARK H PARENT 18 21
ROOT
ATOM      1  N   UNL     1      -1.900  -2.157   0.993  1.00  0.00    -0.274 N 
ATOM      2  C   UNL     1      -2.073  -3.312   1.753  1.00  0.00     0.135 A 
ATOM      3  C   UNL     1      -3.342  -3.773   2.368  1.00  0.00     0.090 C 
ATOM      4  N   UNL     1      -0.906  -3.896   1.946  1.00  0.00    -0.134 NA
ATOM      5  N   UNL     1       0.056  -3.147   1.333  1.00  0.00    -0.123 NA
ATOM      6  C   UNL     1      -0.532  -2.120   0.763  1.00  0.00     0.196 A 
ENDROOT
BRANCH   1   7
ATOM      7  C   UNL     1      -2.906  -1.244   0.570  1.00  0.00     0.050 A 
ATOM      8  C   UNL     1      -4.902   0.561  -0.262  1.00  0.00     0.119 A 
ATOM      9  C   UNL     1      -5.136  -0.816  -0.275  1.00  0.00     0.048 A 
ATOM     10  C   UNL     1      -3.669   1.033   0.183  1.00  0.00     0.048 A 
ATOM     11  C   UNL     1      -4.149  -1.717   0.134  1.00  0.00     0.030 A 
ATOM     12  C   UNL     1      -2.674   0.136   0.596  1.00  0.00     0.030 A 
BRANCH   8  13
ATOM     13  O   UNL     1      -5.955   1.320  -0.685  1.00  0.00    -0.494 OA
BRANCH  13  14
ATOM     14  C   UNL     1      -5.734   2.702  -0.963  1.00  0.00     0.226 C 
ATOM     15  C   UNL     1      -6.048   3.550   0.257  1.00  0.00     0.049 C 
ENDBRANCH  13  14
ENDBRANCH   8  13
ENDBRANCH   1   7
BRANCH   6  16
ATOM     16  S   UNL     1       0.293  -0.996  -0.271  1.00  0.00    -0.076 SA
BRANCH  16  17
ATOM     17  C   UNL     1       1.797  -1.945  -0.641  1.00  0.00     0.178 C 
BRANCH  17  18
ATOM     18  C   UNL     1       2.671  -1.135  -1.579  1.00  0.00     0.230 C 
ATOM     19  N   UNL     1       3.637  -0.381  -0.946  1.00  0.00    -0.351 N 
ATOM     20  O   UNL     1       2.524  -1.146  -2.798  1.00  0.00    -0.274 OA
ATOM     21  H   UNL     1       3.571  -0.240   0.054  1.00  0.00     0.163 HD
BRANCH  19  22
ATOM     22  C   UNL     1       4.467   0.529  -1.698  1.00  0.00     0.151 C 
BRANCH  22  23
ATOM     23  C   UNL     1       5.580   1.063  -0.838  1.00  0.00    -0.029 A 
ATOM     24  C   UNL     1       6.762   0.327  -0.675  1.00  0.00     0.005 A 
ATOM     25  C   UNL     1       5.433   2.276  -0.150  1.00  0.00     0.005 A 
ATOM     26  C   UNL     1       7.785   0.803   0.147  1.00  0.00     0.000 A 
ATOM     27  C   UNL     1       6.458   2.751   0.672  1.00  0.00     0.000 A 
ATOM     28  C   UNL     1       7.633   2.015   0.818  1.00  0.00     0.000 A 
ENDBRANCH  22  23
ENDBRANCH  19  22
ENDBRANCH  17  18
ENDBRANCH  16  17
ENDBRANCH   6  16
TORSDOF 8
