REMARK SMILES CCOc1ccc(-n2nc(C(=O)NCc3ccccc3)nc2-c2ccccc2)cc1
REMARK SMILES IDX 4 1 5 2 6 3 7 4 29 5 30 6 3 7 2 8 1 9 8 10 9 11 22 12 10 13
REMARK SMILES IDX 21 14 23 15 24 16 28 17 25 18 27 19 26 20 11 21 13 22 12 23
REMARK SMILES IDX 14 25 15 26 16 27 20 28 17 29 19 30 18 31
REMARK H PARENT 13 24
ROOT
ATOM      1  C   UNL     1       3.688   1.362  -0.413  1.00  0.00     0.119 A 
ATOM      2  C   UNL     1       2.457   1.797   0.068  1.00  0.00     0.048 A 
ATOM      3  C   UNL     1       1.360   0.925   0.087  1.00  0.00     0.032 A 
ATOM      4  C   UNL     1       1.484  -0.401  -0.360  1.00  0.00     0.067 A 
ATOM      5  C   UNL     1       2.717  -0.828  -0.858  1.00  0.00     0.032 A 
ATOM      6  C   UNL     1       3.808   0.049  -0.874  1.00  0.00     0.048 A 
ENDROOT
BRANCH   1   7
ATOM      7  O   UNL     1       4.838   2.095  -0.488  1.00  0.00    -0.494 OA
BRANCH   7   8
ATOM      8  C   UNL     1       4.795   3.484  -0.163  1.00  0.00     0.226 C 
ATOM      9  C   UNL     1       5.044   3.700   1.319  1.00  0.00     0.049 C 
ENDBRANCH   7   8
ENDBRANCH   1   7
BRANCH   4  10
ATOM     10  N   UNL     1       0.339  -1.251  -0.328  1.00  0.00    -0.212 N 
ATOM     11  N   UNL     1      -0.899  -0.698  -0.184  1.00  0.00    -0.140 NA
ATOM     12  C   UNL     1       0.210  -2.633  -0.458  1.00  0.00     0.164 A 
ATOM     13  C   UNL     1      -1.721  -1.737  -0.415  1.00  0.00     0.240 A 
ATOM     14  N   UNL     1      -1.069  -2.928  -0.605  1.00  0.00    -0.202 NA
BRANCH  12  15
ATOM     15  C   UNL     1       1.266  -3.641  -0.393  1.00  0.00     0.019 A 
ATOM     16  C   UNL     1       1.368  -4.603  -1.406  1.00  0.00     0.012 A 
ATOM     17  C   UNL     1       2.150  -3.702   0.694  1.00  0.00     0.012 A 
ATOM     18  C   UNL     1       2.362  -5.582  -1.357  1.00  0.00     0.001 A 
ATOM     19  C   UNL     1       3.145  -4.681   0.742  1.00  0.00     0.001 A 
ATOM     20  C   UNL     1       3.254  -5.617  -0.286  1.00  0.00     0.000 A 
ENDBRANCH  12  15
BRANCH  13  21
ATOM     21  C   UNL     1      -3.192  -1.589  -0.449  1.00  0.00     0.291 C 
ATOM     22  N   UNL     1      -3.618  -0.303  -0.185  1.00  0.00    -0.345 N 
ATOM     23  O   UNL     1      -3.968  -2.508  -0.697  1.00  0.00    -0.266 OA
ATOM     24  H   UNL     1      -2.897   0.403  -0.077  1.00  0.00     0.164 HD
BRANCH  22  25
ATOM     25  C   UNL     1      -5.001   0.072  -0.284  1.00  0.00     0.152 C 
BRANCH  25  26
ATOM     26  C   UNL     1      -5.204   1.488   0.182  1.00  0.00    -0.029 A 
ATOM     27  C   UNL     1      -5.160   2.552  -0.730  1.00  0.00     0.005 A 
ATOM     28  C   UNL     1      -5.391   1.766   1.544  1.00  0.00     0.005 A 
ATOM     29  C   UNL     1      -5.321   3.867  -0.290  1.00  0.00     0.000 A 
ATOM     30  C   UNL     1      -5.553   3.082   1.981  1.00  0.00     0.000 A 
ATOM     31  C   UNL     1      -5.520   4.131   1.065  1.00  0.00     0.000 A 
ENDBRANCH  25  26
ENDBRANCH  22  25
ENDBRANCH  13  21
ENDBRANCH   4  10
TORSDOF 7
