REMARK SMILES CCOc1ccc(-n2nc(C(=O)NCCCOC)nc2-c2ccc(C)cc2)cc1
REMARK SMILES IDX 11 1 12 2 13 3 10 5 8 6 9 7 20 8 19 9 7 10 4 11 5 12 29 13
REMARK SMILES IDX 6 14 28 15 3 16 2 17 1 18 21 19 22 20 27 21 23 22 26 23
REMARK SMILES IDX 24 24 25 25 14 26 15 27 16 28 17 29 18 30
REMARK H PARENT 13 4
ROOT
ATOM      1  C   UNL     1       3.329  -0.557   0.610  1.00  0.00     0.290 C 
ATOM      2  O   UNL     1       4.120  -1.372   1.077  1.00  0.00    -0.266 OA
ATOM      3  N   UNL     1       3.720   0.666   0.092  1.00  0.00    -0.349 N 
ATOM      4  H   UNL     1       2.990   1.165  -0.410  1.00  0.00     0.163 HD
ENDROOT
BRANCH   1   5
ATOM      5  C   UNL     1       1.868  -0.784   0.532  1.00  0.00     0.240 A 
ATOM      6  N   UNL     1      -0.193  -0.457   0.171  1.00  0.00    -0.212 N 
ATOM      7  N   UNL     1       1.032   0.099  -0.045  1.00  0.00    -0.140 NA
ATOM      8  C   UNL     1      -0.029  -1.736   0.699  1.00  0.00     0.164 A 
ATOM      9  N   UNL     1       1.243  -1.908   1.007  1.00  0.00    -0.202 NA
BRANCH   6  10
ATOM     10  C   UNL     1      -1.366   0.301  -0.120  1.00  0.00     0.067 A 
ATOM     11  C   UNL     1      -3.639   1.857  -0.729  1.00  0.00     0.119 A 
ATOM     12  C   UNL     1      -2.387   2.203  -1.236  1.00  0.00     0.048 A 
ATOM     13  C   UNL     1      -3.750   0.742   0.099  1.00  0.00     0.048 A 
ATOM     14  C   UNL     1      -1.256   1.440  -0.931  1.00  0.00     0.032 A 
ATOM     15  C   UNL     1      -2.620  -0.030   0.409  1.00  0.00     0.032 A 
BRANCH  11  16
ATOM     16  O   UNL     1      -4.658   2.684  -1.109  1.00  0.00    -0.494 OA
BRANCH  16  17
ATOM     17  C   UNL     1      -5.961   2.385  -0.611  1.00  0.00     0.226 C 
ATOM     18  C   UNL     1      -6.923   3.421  -1.165  1.00  0.00     0.049 C 
ENDBRANCH  16  17
ENDBRANCH  11  16
ENDBRANCH   6  10
BRANCH   8  19
ATOM     19  C   UNL     1      -1.043  -2.777   0.856  1.00  0.00     0.019 A 
ATOM     20  C   UNL     1      -1.181  -3.428   2.088  1.00  0.00     0.012 A 
ATOM     21  C   UNL     1      -1.845  -3.184  -0.219  1.00  0.00     0.012 A 
ATOM     22  C   UNL     1      -2.133  -4.436   2.257  1.00  0.00     0.004 A 
ATOM     23  C   UNL     1      -2.800  -4.191  -0.048  1.00  0.00     0.004 A 
ATOM     24  C   UNL     1      -2.958  -4.817   1.193  1.00  0.00    -0.051 A 
ATOM     25  C   UNL     1      -3.966  -5.916   1.356  1.00  0.00     0.044 C 
ENDBRANCH   8  19
ENDBRANCH   1   5
BRANCH   3  26
ATOM     26  C   UNL     1       5.107   0.984  -0.164  1.00  0.00     0.118 C 
BRANCH  26  27
ATOM     27  C   UNL     1       5.348   2.488  -0.087  1.00  0.00     0.050 C 
BRANCH  27  28
ATOM     28  C   UNL     1       6.809   2.837  -0.339  1.00  0.00     0.161 C 
BRANCH  28  29
ATOM     29  O   UNL     1       7.148   2.485  -1.679  1.00  0.00    -0.385 OA
ATOM     30  C   UNL     1       8.507   2.776  -1.972  1.00  0.00     0.194 C 
ENDBRANCH  28  29
ENDBRANCH  27  28
ENDBRANCH  26  27
ENDBRANCH   3  26
TORSDOF 9
