REMARK SMILES Cc1ccccc1OCc1nnc(SCC(=O)NC2CC2)n1-c1ccccc1
REMARK SMILES IDX 10 1 11 2 12 3 13 4 22 5 9 6 8 7 7 8 2 9 3 10 4 11 6 12 5 13
REMARK SMILES IDX 1 14 23 15 24 16 28 17 25 18 27 19 26 20 14 21 15 22 16 23
REMARK SMILES IDX 18 24 17 25 19 27 20 28 21 29
REMARK H PARENT 18 26
ROOT
ATOM      1  C   UNL     1       0.460   0.461  -1.309  1.00  0.00     0.176 A 
ATOM      2  N   UNL     1       1.639   1.059  -1.243  1.00  0.00    -0.130 NA
ATOM      3  N   UNL     1       2.531   0.187  -0.700  1.00  0.00    -0.123 NA
ATOM      4  C   UNL     1       1.896  -0.931  -0.430  1.00  0.00     0.196 A 
ATOM      5  N   UNL     1       0.560  -0.829  -0.790  1.00  0.00    -0.271 N 
ENDROOT
BRANCH   1   6
ATOM      6  C   UNL     1      -0.787   1.139  -1.765  1.00  0.00     0.307 C 
BRANCH   6   7
ATOM      7  O   UNL     1      -1.736   1.051  -0.707  1.00  0.00    -0.485 OA
BRANCH   7   8
ATOM      8  C   UNL     1      -3.019   1.441  -0.987  1.00  0.00     0.122 A 
ATOM      9  C   UNL     1      -3.989   1.082  -0.036  1.00  0.00    -0.009 A 
ATOM     10  C   UNL     1      -5.334   1.418  -0.261  1.00  0.00     0.007 A 
ATOM     11  C   UNL     1      -5.708   2.124  -1.403  1.00  0.00     0.001 A 
ATOM     12  C   UNL     1      -3.401   2.166  -2.122  1.00  0.00     0.047 A 
ATOM     13  C   UNL     1      -4.740   2.503  -2.329  1.00  0.00     0.004 A 
ATOM     14  C   UNL     1      -3.620   0.301   1.194  1.00  0.00     0.048 C 
ENDBRANCH   7   8
ENDBRANCH   6   7
ENDBRANCH   1   6
BRANCH   5  15
ATOM     15  C   UNL     1      -0.468  -1.800  -0.656  1.00  0.00     0.050 A 
ATOM     16  C   UNL     1      -1.385  -2.011  -1.692  1.00  0.00     0.027 A 
ATOM     17  C   UNL     1      -0.583  -2.539   0.528  1.00  0.00     0.027 A 
ATOM     18  C   UNL     1      -2.411  -2.946  -1.539  1.00  0.00     0.002 A 
ATOM     19  C   UNL     1      -1.611  -3.472   0.673  1.00  0.00     0.002 A 
ATOM     20  C   UNL     1      -2.526  -3.671  -0.355  1.00  0.00     0.000 A 
ENDBRANCH   5  15
BRANCH   4  21
ATOM     21  S   UNL     1       2.690  -2.377   0.115  1.00  0.00    -0.076 SA
BRANCH  21  22
ATOM     22  C   UNL     1       4.426  -1.841   0.167  1.00  0.00     0.178 C 
BRANCH  22  23
ATOM     23  C   UNL     1       4.714  -1.075   1.443  1.00  0.00     0.230 C 
ATOM     24  N   UNL     1       4.466   0.280   1.364  1.00  0.00    -0.353 N 
ATOM     25  O   UNL     1       5.142  -1.633   2.453  1.00  0.00    -0.274 OA
ATOM     26  H   UNL     1       3.928   0.620   0.565  1.00  0.00     0.163 HD
BRANCH  24  27
ATOM     27  C   UNL     1       4.621   1.154   2.479  1.00  0.00     0.082 C 
ATOM     28  C   UNL     1       5.927   1.854   2.732  1.00  0.00     0.027 C 
ATOM     29  C   UNL     1       4.739   2.637   2.257  1.00  0.00     0.027 C 
ENDBRANCH  24  27
ENDBRANCH  22  23
ENDBRANCH  21  22
ENDBRANCH   4  21
TORSDOF 8
