REMARK SMILES COc1ccc(-n2nc(C(=O)NCC(=O)NO)nc2-c2ccccc2)cc1
REMARK SMILES IDX 10 1 11 2 12 3 9 5 7 6 8 7 19 8 18 9 6 10 3 11 4 12 27 13
REMARK SMILES IDX 5 14 26 15 2 16 1 17 20 18 21 19 25 20 22 21 24 22 23 23
REMARK SMILES IDX 13 24 14 25 16 26 15 27 17 29
REMARK H PARENT 12 4 16 28 17 30
ROOT
ATOM      1  C   UNL     1       3.449   0.076   0.437  1.00  0.00     0.291 C 
ATOM      2  O   UNL     1       4.292  -0.670   0.934  1.00  0.00    -0.266 OA
ATOM      3  N   UNL     1       3.810   1.252  -0.191  1.00  0.00    -0.340 N 
ATOM      4  H   UNL     1       3.041   1.828  -0.523  1.00  0.00     0.164 HD
ENDROOT
BRANCH   1   5
ATOM      5  C   UNL     1       1.997  -0.190   0.423  1.00  0.00     0.240 A 
ATOM      6  N   UNL     1      -0.086   0.084   0.154  1.00  0.00    -0.212 N 
ATOM      7  N   UNL     1       1.117   0.669  -0.119  1.00  0.00    -0.140 NA
ATOM      8  C   UNL     1       0.135  -1.182   0.694  1.00  0.00     0.164 A 
ATOM      9  N   UNL     1       1.425  -1.318   0.946  1.00  0.00    -0.202 NA
BRANCH   6  10
ATOM     10  C   UNL     1      -1.289   0.809  -0.094  1.00  0.00     0.067 A 
ATOM     11  C   UNL     1      -3.621   2.310  -0.612  1.00  0.00     0.119 A 
ATOM     12  C   UNL     1      -3.671   1.196   0.224  1.00  0.00     0.048 A 
ATOM     13  C   UNL     1      -2.400   2.683  -1.172  1.00  0.00     0.048 A 
ATOM     14  C   UNL     1      -2.511   0.451   0.487  1.00  0.00     0.032 A 
ATOM     15  C   UNL     1      -1.240   1.946  -0.914  1.00  0.00     0.032 A 
BRANCH  11  16
ATOM     16  O   UNL     1      -4.673   3.116  -0.945  1.00  0.00    -0.497 OA
ATOM     17  C   UNL     1      -5.946   2.770  -0.412  1.00  0.00     0.278 C 
ENDBRANCH  11  16
ENDBRANCH   6  10
BRANCH   8  18
ATOM     18  C   UNL     1      -0.845  -2.243   0.916  1.00  0.00     0.019 A 
ATOM     19  C   UNL     1      -0.928  -2.855   2.174  1.00  0.00     0.012 A 
ATOM     20  C   UNL     1      -1.670  -2.703  -0.121  1.00  0.00     0.012 A 
ATOM     21  C   UNL     1      -1.850  -3.878   2.405  1.00  0.00     0.001 A 
ATOM     22  C   UNL     1      -2.591  -3.727   0.112  1.00  0.00     0.001 A 
ATOM     23  C   UNL     1      -2.685  -4.309   1.375  1.00  0.00     0.000 A 
ENDBRANCH   8  18
ENDBRANCH   1   5
BRANCH   3  24
ATOM     24  C   UNL     1       5.140   1.817  -0.074  1.00  0.00     0.218 C 
BRANCH  24  25
ATOM     25  C   UNL     1       6.210   1.190  -0.973  1.00  0.00     0.262 C 
ATOM     26  N   UNL     1       6.119  -0.172  -1.155  1.00  0.00    -0.236 N 
ATOM     27  O   UNL     1       7.163   1.835  -1.414  1.00  0.00    -0.271 OA
ATOM     28  H   UNL     1       5.676  -0.742  -0.431  1.00  0.00     0.198 HD
BRANCH  26  29
ATOM     29  O   UNL     1       7.233  -0.758  -1.810  1.00  0.00    -0.289 OA
ATOM     30  H   UNL     1       7.805   0.019  -1.992  1.00  0.00     0.246 HD
ENDBRANCH  26  29
ENDBRANCH  24  25
ENDBRANCH   3  24
TORSDOF 7
