REMARK SMILES CCCN(CC)c1ccc(C(=O)NCc2nc(-c3ccc(OC)cc3)n[nH]2)cc1
REMARK SMILES IDX 11 1 12 2 13 3 10 5 7 6 8 7 29 8 9 9 28 10 4 11 3 12 2 13
REMARK SMILES IDX 1 14 5 15 6 16 14 17 15 18 16 19 27 20 17 21 26 22 18 24
REMARK SMILES IDX 19 25 25 26 20 27 24 28 21 29 22 30 23 31
REMARK H PARENT 13 4 27 23
ROOT
ATOM      1  C   UNL     1      -0.345  -1.984  -1.693  1.00  0.00     0.251 C 
ATOM      2  O   UNL     1       0.025  -3.098  -1.333  1.00  0.00    -0.269 OA
ATOM      3  N   UNL     1       0.423  -1.182  -2.511  1.00  0.00    -0.345 N 
ATOM      4  H   UNL     1       0.252  -0.185  -2.522  1.00  0.00     0.164 HD
ENDROOT
BRANCH   1   5
ATOM      5  C   UNL     1      -1.628  -1.407  -1.205  1.00  0.00     0.039 A 
ATOM      6  C   UNL     1      -4.053  -0.371  -0.213  1.00  0.00     0.037 A 
ATOM      7  C   UNL     1      -3.511   0.106  -1.414  1.00  0.00     0.027 A 
ATOM      8  C   UNL     1      -3.368  -1.376   0.480  1.00  0.00     0.027 A 
ATOM      9  C   UNL     1      -2.309  -0.409  -1.912  1.00  0.00     0.016 A 
ATOM     10  C   UNL     1      -2.169  -1.897  -0.012  1.00  0.00     0.016 A 
BRANCH   6  11
ATOM     11  N   UNL     1      -5.256   0.122   0.340  1.00  0.00    -0.372 N 
BRANCH  11  12
ATOM     12  C   UNL     1      -5.115   1.534   0.748  1.00  0.00     0.116 C 
BRANCH  12  13
ATOM     13  C   UNL     1      -5.994   1.816   1.970  1.00  0.00     0.018 C 
ATOM     14  C   UNL     1      -5.812   3.241   2.469  1.00  0.00     0.006 C 
ENDBRANCH  12  13
ENDBRANCH  11  12
BRANCH  11  15
ATOM     15  C   UNL     1      -6.436  -0.164  -0.503  1.00  0.00     0.113 C 
ATOM     16  C   UNL     1      -6.811  -1.639  -0.447  1.00  0.00     0.027 C 
ENDBRANCH  11  15
ENDBRANCH   6  11
ENDBRANCH   1   5
BRANCH   3  17
ATOM     17  C   UNL     1       1.720  -1.626  -2.977  1.00  0.00     0.193 C 
BRANCH  17  18
ATOM     18  C   UNL     1       2.721  -1.469  -1.897  1.00  0.00     0.144 A 
ATOM     19  N   UNL     1       3.676  -0.571  -1.778  1.00  0.00    -0.210 NA
ATOM     20  N   UNL     1       2.763  -2.305  -0.819  1.00  0.00    -0.261 N 
ATOM     21  C   UNL     1       4.306  -0.914  -0.598  1.00  0.00     0.181 A 
ATOM     22  N   UNL     1       3.765  -1.982   0.013  1.00  0.00    -0.153 NA
ATOM     23  H   UNL     1       2.127  -3.067  -0.597  1.00  0.00     0.192 HD
BRANCH  21  24
ATOM     24  C   UNL     1       5.453  -0.171  -0.083  1.00  0.00     0.021 A 
ATOM     25  C   UNL     1       6.082  -0.548   1.112  1.00  0.00     0.016 A 
ATOM     26  C   UNL     1       5.951   0.937  -0.779  1.00  0.00     0.016 A 
ATOM     27  C   UNL     1       7.187   0.163   1.600  1.00  0.00     0.047 A 
ATOM     28  C   UNL     1       7.054   1.645  -0.291  1.00  0.00     0.047 A 
ATOM     29  C   UNL     1       7.678   1.263   0.898  1.00  0.00     0.118 A 
BRANCH  29  30
ATOM     30  O   UNL     1       8.747   2.036   1.258  1.00  0.00    -0.497 OA
ATOM     31  C   UNL     1       9.414   1.687   2.465  1.00  0.00     0.278 C 
ENDBRANCH  29  30
ENDBRANCH  21  24
ENDBRANCH  17  18
ENDBRANCH   3  17
TORSDOF 9
