REMARK SMILES COCCCOc1ccccc1NC(=O)NCCc1nnc2n1CCCCC2
REMARK SMILES IDX 13 1 14 2 15 3 16 4 12 7 7 8 8 9 9 10 11 11 10 12 6 13 5 14
REMARK SMILES IDX 4 15 3 16 2 17 1 18 17 19 18 20 19 21 20 22 23 23 21 24
REMARK SMILES IDX 22 25 24 26 28 28 27 29 26 30 25 31
REMARK H PARENT 13 5 16 6
REMARK Flexibility Score:   84.900
ROOT
ATOM      1  N   UNL     1       1.189  -0.165   1.298  1.00  0.00    -0.305 N 
ATOM      2  C   UNL     1       0.101  -0.563   2.033  1.00  0.00     0.319 C 
ATOM      3  O   UNL     1      -0.091  -0.382   3.228  1.00  0.00    -0.249 OA
ATOM      4  N   UNL     1      -0.801  -1.245   1.240  1.00  0.00    -0.337 N 
ATOM      5  H   UNL     1       1.253  -0.512   0.349  1.00  0.00     0.172 HD
ATOM      6  H   UNL     1      -0.816  -0.958   0.267  1.00  0.00     0.165 HD
ENDROOT
BRANCH   1   7
ATOM      7  C   UNL     1       2.312   0.581   1.715  1.00  0.00     0.085 A 
ATOM      8  C   UNL     1       3.339   0.777   0.765  1.00  0.00     0.142 A 
ATOM      9  C   UNL     1       4.477   1.507   1.120  1.00  0.00     0.048 A 
ATOM     10  C   UNL     1       4.595   2.045   2.404  1.00  0.00     0.004 A 
ATOM     11  C   UNL     1       2.440   1.127   2.995  1.00  0.00     0.030 A 
ATOM     12  C   UNL     1       3.579   1.856   3.337  1.00  0.00     0.002 A 
BRANCH   8  13
ATOM     13  O   UNL     1       3.116   0.200  -0.463  1.00  0.00    -0.491 OA
BRANCH  13  14
ATOM     14  C   UNL     1       4.066   0.409  -1.510  1.00  0.00     0.232 C 
BRANCH  14  15
ATOM     15  C   UNL     1       5.147  -0.670  -1.466  1.00  0.00     0.070 C 
BRANCH  15  16
ATOM     16  C   UNL     1       6.162  -0.501  -2.589  1.00  0.00     0.163 C 
BRANCH  16  17
ATOM     17  O   UNL     1       6.827   0.759  -2.514  1.00  0.00    -0.385 OA
ATOM     18  C   UNL     1       7.927   0.755  -1.612  1.00  0.00     0.194 C 
ENDBRANCH  16  17
ENDBRANCH  15  16
ENDBRANCH  14  15
ENDBRANCH  13  14
ENDBRANCH   8  13
ENDBRANCH   1   7
BRANCH   4  19
ATOM     19  C   UNL     1      -2.077  -1.660   1.796  1.00  0.00     0.126 C 
BRANCH  19  20
ATOM     20  C   UNL     1      -2.897  -2.500   0.818  1.00  0.00     0.099 C 
BRANCH  20  21
ATOM     21  C   UNL     1      -3.267  -1.706  -0.390  1.00  0.00     0.134 A 
ATOM     22  N   UNL     1      -2.493  -1.542  -1.443  1.00  0.00    -0.135 NA
ATOM     23  N   UNL     1      -4.414  -0.965  -0.563  1.00  0.00    -0.315 N 
ATOM     24  N   UNL     1      -3.117  -0.683  -2.302  1.00  0.00    -0.135 NA
ATOM     25  C   UNL     1      -4.265  -0.321  -1.769  1.00  0.00     0.132 A 
BRANCH  23  26
ATOM     26  C   UNL     1      -5.506  -0.843   0.381  1.00  0.00     0.125 CG0
ATOM     27  G   UNL     1      -6.869  -0.535  -0.232  1.00  0.00     0.000 G0
ENDBRANCH  23  26
BRANCH  25  28
ATOM     28  C   UNL     1      -5.225   0.638  -2.385  1.00  0.00     0.077 C 
BRANCH  28  29
ATOM     29  C   UNL     1      -5.882   1.568  -1.372  1.00  0.00     0.008 C 
BRANCH  29  30
ATOM     30  C   UNL     1      -7.055   0.929  -0.628  1.00  0.00     0.002 C 
BRANCH  30  31
ATOM     31  C   UNL     1      -6.869  -0.535  -0.232  1.00  0.00     0.022 CG0
ATOM     32  G   UNL     1      -5.506  -0.843   0.381  1.00  0.00     0.000 G0
ENDBRANCH  30  31
ENDBRANCH  29  30
ENDBRANCH  28  29
ENDBRANCH  25  28
ENDBRANCH  20  21
ENDBRANCH  19  20
ENDBRANCH   4  19
TORSDOF 9
