REMARK SMILES Cc1ccc(-n2nc(C(=O)NCCOc3ccccc3)nc2-c2ccoc2)cc1
REMARK SMILES IDX 9 1 10 2 11 3 8 5 6 6 7 7 22 8 21 9 5 10 2 11 3 12 29 13
REMARK SMILES IDX 4 14 28 15 1 16 23 17 24 18 27 19 25 20 26 21 12 22 13 23
REMARK SMILES IDX 14 24 15 25 16 26 20 27 17 28 19 29 18 30
REMARK H PARENT 11 4
ROOT
ATOM      1  C   UNL     1      -1.132  -2.333   1.988  1.00  0.00     0.291 C 
ATOM      2  O   UNL     1      -1.419  -3.301   2.688  1.00  0.00    -0.266 OA
ATOM      3  N   UNL     1      -2.082  -1.465   1.481  1.00  0.00    -0.346 N 
ATOM      4  H   UNL     1      -1.715  -0.606   1.076  1.00  0.00     0.164 HD
ENDROOT
BRANCH   1   5
ATOM      5  C   UNL     1       0.253  -1.969   1.616  1.00  0.00     0.240 A 
ATOM      6  N   UNL     1       1.880  -0.994   0.692  1.00  0.00    -0.212 N 
ATOM      7  N   UNL     1       0.540  -0.866   0.899  1.00  0.00    -0.140 NA
ATOM      8  C   UNL     1       2.372  -1.993   1.517  1.00  0.00     0.167 A 
ATOM      9  N   UNL     1       1.360  -2.691   1.991  1.00  0.00    -0.202 NA
BRANCH   6  10
ATOM     10  C   UNL     1       2.510  -0.221  -0.318  1.00  0.00     0.067 A 
ATOM     11  C   UNL     1       3.673   1.311  -2.371  1.00  0.00    -0.051 A 
ATOM     12  C   UNL     1       2.519   1.760  -1.721  1.00  0.00     0.005 A 
ATOM     13  C   UNL     1       4.237   0.089  -1.990  1.00  0.00     0.005 A 
ATOM     14  C   UNL     1       1.929   0.993  -0.713  1.00  0.00     0.029 A 
ATOM     15  C   UNL     1       3.652  -0.682  -0.979  1.00  0.00     0.029 A 
ATOM     16  C   UNL     1       4.322   2.148  -3.434  1.00  0.00     0.044 C 
ENDBRANCH   6  10
BRANCH   8  17
ATOM     17  C   UNL     1       3.834  -2.274   1.980  1.00  0.00     0.058 A 
ATOM     18  C   UNL     1       5.023  -1.523   1.819  1.00  0.00     0.054 A 
ATOM     19  C   UNL     1       4.175  -3.371   2.739  1.00  0.00     0.206 A 
ATOM     20  C   UNL     1       6.013  -2.234   2.460  1.00  0.00     0.195 A 
ATOM     21  O   UNL     1       5.504  -3.362   3.018  1.00  0.00    -0.472 OA
ENDBRANCH   8  17
ENDBRANCH   1   5
BRANCH   3  22
ATOM     22  C   UNL     1      -3.459  -1.491   1.929  1.00  0.00     0.157 C 
BRANCH  22  23
ATOM     23  C   UNL     1      -4.383  -0.751   0.963  1.00  0.00     0.250 C 
BRANCH  23  24
ATOM     24  O   UNL     1      -4.010   0.631   0.957  1.00  0.00    -0.492 OA
BRANCH  24  25
ATOM     25  C   UNL     1      -4.723   1.464   0.140  1.00  0.00     0.119 A 
ATOM     26  C   UNL     1      -4.323   2.802   0.181  1.00  0.00     0.046 A 
ATOM     27  C   UNL     1      -5.777   1.092  -0.696  1.00  0.00     0.046 A 
ATOM     28  C   UNL     1      -4.966   3.761  -0.604  1.00  0.00     0.004 A 
ATOM     29  C   UNL     1      -6.421   2.052  -1.483  1.00  0.00     0.004 A 
ATOM     30  C   UNL     1      -6.016   3.385  -1.437  1.00  0.00     0.000 A 
ENDBRANCH  24  25
ENDBRANCH  23  24
ENDBRANCH  22  23
ENDBRANCH   3  22
TORSDOF 7
