REMARK SMILES COc1ccccc1N1CCN(C(=O)NCc2nnc3n2CCCCC3)CC1
REMARK SMILES IDX 16 1 15 2 9 3 10 4 28 5 11 6 27 7 12 8 13 9 14 10 8 12 3 13
REMARK SMILES IDX 4 14 5 15 7 16 6 17 2 18 1 19 17 20 18 21 21 22 19 23 20 24
REMARK SMILES IDX 22 25 23 26 24 27 26 29 25 30
REMARK H PARENT 15 11
REMARK Flexibility Score:   26.900
ROOT
ATOM      1  C   UNL     1       2.094  -1.809  -0.793  1.00  0.00     0.195 C 
ENDROOT
BRANCH   1   2
ATOM      2  N   UNL     1       0.844  -1.461  -0.151  1.00  0.00    -0.331 N 
ATOM      3  N   UNL     1      -3.635   0.437   0.667  1.00  0.00    -0.365 N 
ATOM      4  C   UNL     1      -2.719   1.467   0.096  1.00  0.00     0.138 C 
ATOM      5  C   UNL     1      -2.996  -0.534   1.575  1.00  0.00     0.138 C 
ATOM      6  C   UNL     1      -1.303   1.394   0.699  1.00  0.00     0.143 C 
ATOM      7  C   UNL     1      -1.656  -1.043   1.015  1.00  0.00     0.143 C 
ATOM      8  N   UNL     1      -0.746   0.040   0.611  1.00  0.00    -0.321 N 
ATOM      9  C   UNL     1       0.438  -0.156  -0.071  1.00  0.00     0.317 C 
ATOM     10  O   UNL     1       1.076   0.757  -0.588  1.00  0.00    -0.249 OA
ATOM     11  H   UNL     1       0.633  -2.027   0.657  1.00  0.00     0.165 HD
BRANCH   3  12
ATOM     12  C   UNL     1      -4.649   0.032  -0.221  1.00  0.00     0.079 A 
ATOM     13  C   UNL     1      -5.512   0.969  -0.840  1.00  0.00     0.142 A 
ATOM     14  C   UNL     1      -6.481   0.588  -1.776  1.00  0.00     0.048 A 
ATOM     15  C   UNL     1      -6.652  -0.754  -2.089  1.00  0.00     0.004 A 
ATOM     16  C   UNL     1      -4.868  -1.317  -0.550  1.00  0.00     0.030 A 
ATOM     17  C   UNL     1      -5.852  -1.707  -1.469  1.00  0.00     0.002 A 
BRANCH  13  18
ATOM     18  O   UNL     1      -5.428   2.317  -0.573  1.00  0.00    -0.495 OA
ATOM     19  C   UNL     1      -6.149   2.614   0.623  1.00  0.00     0.278 C 
ENDBRANCH  13  18
ENDBRANCH   3  12
ENDBRANCH   1   2
BRANCH   1  20
ATOM     20  C   UNL     1       3.185  -1.731   0.213  1.00  0.00     0.152 A 
ATOM     21  N   UNL     1       3.367  -2.593   1.194  1.00  0.00    -0.133 NA
ATOM     22  N   UNL     1       4.143  -0.750   0.307  1.00  0.00    -0.313 N 
ATOM     23  N   UNL     1       4.445  -2.184   1.929  1.00  0.00    -0.135 NA
ATOM     24  C   UNL     1       4.916  -1.073   1.398  1.00  0.00     0.133 A 
BRANCH  22  25
ATOM     25  C   UNL     1       4.302   0.421  -0.521  1.00  0.00     0.125 C 
BRANCH  25  26
ATOM     26  C   UNL     1       5.622   0.453  -1.288  1.00  0.00     0.022 C 
BRANCH  26  27
ATOM     27  C   UNL     1       6.889   0.273  -0.445  1.00  0.00     0.002 CG0
ATOM     28  G   UNL     1       6.739   0.718   1.007  1.00  0.00     0.000 G0
ENDBRANCH  26  27
ENDBRANCH  25  26
ENDBRANCH  22  25
BRANCH  24  29
ATOM     29  C   UNL     1       6.109  -0.340   1.913  1.00  0.00     0.077 C 
BRANCH  29  30
ATOM     30  C   UNL     1       6.739   0.718   1.007  1.00  0.00     0.008 CG0
ATOM     31  G   UNL     1       6.889   0.273  -0.445  1.00  0.00     0.000 G0
ENDBRANCH  29  30
ENDBRANCH  24  29
ENDBRANCH   1  20
TORSDOF 4
