REMARK SMILES CCOc1ccc(C(=O)NCC(=O)Nc2cccc(-c3n[nH]c(C)n3)c2)cc1
REMARK SMILES IDX 8 1 9 2 10 3 7 5 4 6 5 7 28 8 6 9 27 10 3 11 2 12 1 13 11 14
REMARK SMILES IDX 12 15 14 16 13 17 15 19 16 20 26 21 17 22 19 23 18 24 20 25
REMARK SMILES IDX 21 26 25 27 22 28 23 29 24 31
REMARK H PARENT 10 4 14 18 22 30
ROOT
ATOM      1  C   UNL     1      -1.700   0.482   1.691  1.00  0.00     0.251 C 
ATOM      2  O   UNL     1      -0.983  -0.448   2.050  1.00  0.00    -0.269 OA
ATOM      3  N   UNL     1      -1.701   1.695   2.345  1.00  0.00    -0.343 N 
ATOM      4  H   UNL     1      -2.028   2.517   1.854  1.00  0.00     0.164 HD
ENDROOT
BRANCH   1   5
ATOM      5  C   UNL     1      -2.552   0.368   0.476  1.00  0.00     0.040 A 
ATOM      6  C   UNL     1      -4.122   0.070  -1.839  1.00  0.00     0.119 A 
ATOM      7  C   UNL     1      -3.023  -0.762  -1.615  1.00  0.00     0.047 A 
ATOM      8  C   UNL     1      -4.441   1.048  -0.895  1.00  0.00     0.047 A 
ATOM      9  C   UNL     1      -2.241  -0.619  -0.465  1.00  0.00     0.017 A 
ATOM     10  C   UNL     1      -3.663   1.194   0.262  1.00  0.00     0.017 A 
BRANCH   6  11
ATOM     11  O   UNL     1      -4.802  -0.181  -2.998  1.00  0.00    -0.494 OA
BRANCH  11  12
ATOM     12  C   UNL     1      -5.869   0.705  -3.334  1.00  0.00     0.226 C 
ATOM     13  C   UNL     1      -6.454   0.250  -4.659  1.00  0.00     0.049 C 
ENDBRANCH  11  12
ENDBRANCH   6  11
ENDBRANCH   1   5
BRANCH   3  14
ATOM     14  C   UNL     1      -0.841   1.918   3.498  1.00  0.00     0.216 C 
BRANCH  14  15
ATOM     15  C   UNL     1       0.580   2.292   3.067  1.00  0.00     0.243 C 
ATOM     16  N   UNL     1       1.259   1.227   2.501  1.00  0.00    -0.325 N 
ATOM     17  O   UNL     1       0.998   3.438   3.218  1.00  0.00    -0.273 OA
ATOM     18  H   UNL     1       0.713   0.371   2.380  1.00  0.00     0.169 HD
BRANCH  16  19
ATOM     19  C   UNL     1       2.575   1.201   2.003  1.00  0.00     0.041 A 
ATOM     20  C   UNL     1       3.467   2.270   2.101  1.00  0.00     0.026 A 
ATOM     21  C   UNL     1       2.995   0.020   1.376  1.00  0.00     0.038 A 
ATOM     22  C   UNL     1       4.762   2.159   1.588  1.00  0.00     0.003 A 
ATOM     23  C   UNL     1       4.290  -0.103   0.847  1.00  0.00     0.023 A 
ATOM     24  C   UNL     1       5.173   0.979   0.968  1.00  0.00     0.012 A 
BRANCH  23  25
ATOM     25  C   UNL     1       4.702  -1.339   0.186  1.00  0.00     0.181 A 
ATOM     26  N   UNL     1       5.921  -1.544  -0.339  1.00  0.00    -0.153 NA
ATOM     27  N   UNL     1       3.854  -2.418   0.047  1.00  0.00    -0.212 NA
ATOM     28  N   UNL     1       5.818  -2.793  -0.813  1.00  0.00    -0.263 N 
ATOM     29  C   UNL     1       4.578  -3.314  -0.585  1.00  0.00     0.121 A 
ATOM     30  H   UNL     1       6.615  -3.217  -1.272  1.00  0.00     0.192 HD
ATOM     31  C   UNL     1       4.184  -4.677  -0.995  1.00  0.00     0.089 C 
ENDBRANCH  23  25
ENDBRANCH  16  19
ENDBRANCH  14  15
ENDBRANCH   3  14
TORSDOF 7
