REMARK SMILES Cc1ccc(C)c(-n2c(C)nnc2SCC(=O)NCCOc2ccccc2)c1
REMARK SMILES IDX 16 1 17 2 18 3 15 5 14 6 13 7 8 8 9 9 11 10 12 11 10 12 7 13
REMARK SMILES IDX 2 14 3 15 28 16 4 17 5 18 1 19 6 20 19 21 20 22 21 23 22 24
REMARK SMILES IDX 23 25 27 26 24 27 26 28 25 29
REMARK H PARENT 18 4
ROOT
ATOM      1  C   UNL     1       0.922   1.843  -1.072  1.00  0.00     0.230 C 
ATOM      2  O   UNL     1       0.820   2.890  -0.436  1.00  0.00    -0.274 OA
ATOM      3  N   UNL     1       1.651   0.770  -0.620  1.00  0.00    -0.352 N 
ATOM      4  H   UNL     1       1.641  -0.105  -1.146  1.00  0.00     0.163 HD
ENDROOT
BRANCH   1   5
ATOM      5  C   UNL     1       0.216   1.617  -2.399  1.00  0.00     0.178 C 
BRANCH   5   6
ATOM      6  S   UNL     1      -1.538   1.230  -2.125  1.00  0.00    -0.076 SA
BRANCH   6   7
ATOM      7  C   UNL     1      -1.396  -0.261  -1.254  1.00  0.00     0.196 A 
ATOM      8  N   UNL     1      -2.294  -0.717  -0.313  1.00  0.00    -0.274 N 
ATOM      9  C   UNL     1      -1.848  -1.994  -0.008  1.00  0.00     0.135 A 
ATOM     10  N   UNL     1      -0.742  -2.245  -0.681  1.00  0.00    -0.134 NA
ATOM     11  N   UNL     1      -0.464  -1.161  -1.469  1.00  0.00    -0.123 NA
ATOM     12  C   UNL     1      -2.476  -2.894   0.990  1.00  0.00     0.090 C 
BRANCH   8  13
ATOM     13  C   UNL     1      -3.435  -0.070   0.212  1.00  0.00     0.053 A 
ATOM     14  C   UNL     1      -5.861  -0.060   0.437  1.00  0.00    -0.049 A 
ATOM     15  C   UNL     1      -5.774   1.163   1.108  1.00  0.00     0.004 A 
ATOM     16  C   UNL     1      -4.683  -0.682   0.002  1.00  0.00     0.030 A 
ATOM     17  C   UNL     1      -4.532   1.758   1.342  1.00  0.00     0.006 A 
ATOM     18  C   UNL     1      -3.339   1.144   0.918  1.00  0.00    -0.027 A 
ATOM     19  C   UNL     1      -7.197  -0.709   0.224  1.00  0.00     0.044 C 
ATOM     20  C   UNL     1      -2.043   1.821   1.277  1.00  0.00     0.046 C 
ENDBRANCH   8  13
ENDBRANCH   6   7
ENDBRANCH   5   6
ENDBRANCH   1   5
BRANCH   3  21
ATOM     21  C   UNL     1       2.387   0.813   0.629  1.00  0.00     0.157 C 
BRANCH  21  22
ATOM     22  C   UNL     1       2.903  -0.564   1.054  1.00  0.00     0.250 C 
BRANCH  22  23
ATOM     23  O   UNL     1       3.799  -1.116   0.085  1.00  0.00    -0.492 OA
BRANCH  23  24
ATOM     24  C   UNL     1       5.104  -0.711   0.082  1.00  0.00     0.119 A 
ATOM     25  C   UNL     1       5.881  -1.275  -0.936  1.00  0.00     0.046 A 
ATOM     26  C   UNL     1       5.699   0.186   0.970  1.00  0.00     0.046 A 
ATOM     27  C   UNL     1       7.228  -0.939  -1.076  1.00  0.00     0.004 A 
ATOM     28  C   UNL     1       7.050   0.524   0.831  1.00  0.00     0.004 A 
ATOM     29  C   UNL     1       7.813  -0.036  -0.191  1.00  0.00     0.000 A 
ENDBRANCH  23  24
ENDBRANCH  22  23
ENDBRANCH  21  22
ENDBRANCH   3  21
TORSDOF 8
