REMARK SMILES CC(=O)Nc1ccc(OCc2noc(C(=O)NCCc3ccccc3)n2)cc1
REMARK SMILES IDX 11 1 12 2 13 3 14 4 26 5 10 6 9 7 8 8 5 9 6 10 28 11 7 12
REMARK SMILES IDX 27 13 4 14 2 15 1 16 3 17 15 19 17 20 16 21 18 23 19 24
REMARK SMILES IDX 20 25 21 26 25 27 22 28 24 29 23 30
REMARK H PARENT 4 18 17 22
ROOT
ATOM      1  C   UNL     1      -0.759  -1.604  -2.664  1.00  0.00     0.209 A 
ATOM      2  N   UNL     1      -0.585  -1.020  -3.857  1.00  0.00    -0.058 NA
ATOM      3  O   UNL     1       0.476  -0.138  -3.636  1.00  0.00    -0.328 OA
ATOM      4  C   UNL     1       0.846  -0.300  -2.336  1.00  0.00     0.316 A 
ATOM      5  N   UNL     1       0.127  -1.200  -1.689  1.00  0.00    -0.184 NA
ENDROOT
BRANCH   1   6
ATOM      6  C   UNL     1      -1.799  -2.645  -2.419  1.00  0.00     0.310 C 
BRANCH   6   7
ATOM      7  O   UNL     1      -3.144  -2.185  -2.605  1.00  0.00    -0.485 OA
BRANCH   7   8
ATOM      8  C   UNL     1      -3.773  -1.563  -1.563  1.00  0.00     0.120 A 
ATOM      9  C   UNL     1      -5.335  -0.277   0.406  1.00  0.00     0.041 A 
ATOM     10  C   UNL     1      -3.962  -0.478   0.594  1.00  0.00     0.030 A 
ATOM     11  C   UNL     1      -5.919  -0.724  -0.778  1.00  0.00     0.030 A 
ATOM     12  C   UNL     1      -3.185  -1.119  -0.381  1.00  0.00     0.048 A 
ATOM     13  C   UNL     1      -5.141  -1.356  -1.755  1.00  0.00     0.048 A 
BRANCH   9  14
ATOM     14  N   UNL     1      -6.039   0.376   1.440  1.00  0.00    -0.326 N 
ATOM     15  C   UNL     1      -7.392   0.658   1.489  1.00  0.00     0.221 C 
ATOM     16  C   UNL     1      -7.786   1.387   2.752  1.00  0.00     0.114 C 
ATOM     17  O   UNL     1      -8.233   0.396   0.635  1.00  0.00    -0.275 OA
ATOM     18  H   UNL     1      -5.484   0.671   2.233  1.00  0.00     0.169 HD
ENDBRANCH   9  14
ENDBRANCH   7   8
ENDBRANCH   6   7
ENDBRANCH   1   6
BRANCH   4  19
ATOM     19  C   UNL     1       1.960   0.460  -1.806  1.00  0.00     0.309 C 
ATOM     20  N   UNL     1       2.286   0.128  -0.501  1.00  0.00    -0.347 N 
ATOM     21  O   UNL     1       2.589   1.308  -2.434  1.00  0.00    -0.264 OA
ATOM     22  H   UNL     1       1.765  -0.627  -0.065  1.00  0.00     0.163 HD
BRANCH  20  23
ATOM     23  C   UNL     1       3.430   0.698   0.185  1.00  0.00     0.121 C 
BRANCH  23  24
ATOM     24  C   UNL     1       4.750   0.068  -0.273  1.00  0.00     0.057 C 
BRANCH  24  25
ATOM     25  C   UNL     1       5.927   0.600   0.505  1.00  0.00    -0.046 A 
ATOM     26  C   UNL     1       6.466   1.858   0.199  1.00  0.00     0.004 A 
ATOM     27  C   UNL     1       6.490  -0.145   1.550  1.00  0.00     0.004 A 
ATOM     28  C   UNL     1       7.548   2.359   0.925  1.00  0.00     0.000 A 
ATOM     29  C   UNL     1       7.574   0.358   2.273  1.00  0.00     0.000 A 
ATOM     30  C   UNL     1       8.102   1.610   1.962  1.00  0.00     0.000 A 
ENDBRANCH  24  25
ENDBRANCH  23  24
ENDBRANCH  20  23
ENDBRANCH   4  19
TORSDOF 8
