REMARK SMILES CCOc1ccc(-n2nc(C(=O)NCCO)nc2-c2ccc(C)cc2)cc1
REMARK SMILES IDX 8 1 9 2 10 3 17 4 18 5 7 6 4 7 5 8 27 9 6 10 26 11 3 12 2 13
REMARK SMILES IDX 1 14 19 15 20 16 25 17 21 18 24 19 22 20 23 21 11 22 13 23
REMARK SMILES IDX 12 24 14 26 15 27 16 28
REMARK H PARENT 13 25 16 29
ROOT
ATOM      1  N   UNL     1      -0.607  -0.488  -0.168  1.00  0.00    -0.212 N 
ATOM      2  N   UNL     1      -1.308  -1.495  -0.765  1.00  0.00    -0.140 NA
ATOM      3  C   UNL     1      -2.585  -1.174  -0.486  1.00  0.00     0.240 A 
ATOM      4  N   UNL     1      -2.728   0.018   0.173  1.00  0.00    -0.202 NA
ATOM      5  C   UNL     1      -1.497   0.481   0.291  1.00  0.00     0.164 A 
ENDROOT
BRANCH   1   6
ATOM      6  C   UNL     1       0.813  -0.581  -0.079  1.00  0.00     0.067 A 
ATOM      7  C   UNL     1       3.622  -0.823   0.047  1.00  0.00     0.119 A 
ATOM      8  C   UNL     1       2.882  -1.605  -0.840  1.00  0.00     0.048 A 
ATOM      9  C   UNL     1       2.952   0.064   0.888  1.00  0.00     0.048 A 
ATOM     10  C   UNL     1       1.489  -1.495  -0.901  1.00  0.00     0.032 A 
ATOM     11  C   UNL     1       1.555   0.183   0.830  1.00  0.00     0.032 A 
BRANCH   7  12
ATOM     12  O   UNL     1       4.972  -1.024  -0.001  1.00  0.00    -0.494 OA
BRANCH  12  13
ATOM     13  C   UNL     1       5.778  -0.247   0.883  1.00  0.00     0.226 C 
ATOM     14  C   UNL     1       7.231  -0.612   0.635  1.00  0.00     0.049 C 
ENDBRANCH  12  13
ENDBRANCH   7  12
ENDBRANCH   1   6
BRANCH   5  15
ATOM     15  C   UNL     1      -1.185   1.823   0.779  1.00  0.00     0.019 A 
ATOM     16  C   UNL     1      -1.701   2.250   2.008  1.00  0.00     0.012 A 
ATOM     17  C   UNL     1      -0.416   2.715   0.019  1.00  0.00     0.012 A 
ATOM     18  C   UNL     1      -1.419   3.530   2.491  1.00  0.00     0.004 A 
ATOM     19  C   UNL     1      -0.135   3.996   0.502  1.00  0.00     0.004 A 
ATOM     20  C   UNL     1      -0.639   4.415   1.739  1.00  0.00    -0.051 A 
ATOM     21  C   UNL     1      -0.312   5.782   2.262  1.00  0.00     0.044 C 
ENDBRANCH   5  15
BRANCH   3  22
ATOM     22  C   UNL     1      -3.719  -2.039  -0.874  1.00  0.00     0.291 C 
ATOM     23  N   UNL     1      -3.338  -3.191  -1.536  1.00  0.00    -0.347 N 
ATOM     24  O   UNL     1      -4.897  -1.776  -0.640  1.00  0.00    -0.266 OA
ATOM     25  H   UNL     1      -2.334  -3.336  -1.613  1.00  0.00     0.164 HD
BRANCH  23  26
ATOM     26  C   UNL     1      -4.253  -4.268  -1.865  1.00  0.00     0.144 C 
BRANCH  26  27
ATOM     27  C   UNL     1      -5.299  -3.884  -2.919  1.00  0.00     0.177 C 
BRANCH  27  28
ATOM     28  O   UNL     1      -6.410  -3.202  -2.345  1.00  0.00    -0.395 OA
ATOM     29  H   UNL     1      -6.052  -2.527  -1.727  1.00  0.00     0.210 HD
ENDBRANCH  27  28
ENDBRANCH  26  27
ENDBRANCH  23  26
ENDBRANCH   3  22
TORSDOF 8
