REMARK SMILES COc1ccc(NCc2nc(CC(=O)NCCCN(C)C)n[nH]2)cc1
REMARK SMILES IDX 12 1 11 2 9 3 10 4 23 5 22 6 8 8 7 9 6 11 3 12 4 13 25 14
REMARK SMILES IDX 5 15 24 16 2 17 1 18 13 19 15 20 14 21 16 23 17 24 18 25
REMARK SMILES IDX 19 26 20 27 21 28
REMARK H PARENT 23 7 7 10 15 22
ROOT
ATOM      1  C   UNL     1      -1.704  -2.645   3.255  1.00  0.00     0.179 C 
ENDROOT
BRANCH   1   2
ATOM      2  C   UNL     1      -0.579  -2.166   2.416  1.00  0.00     0.160 A 
ATOM      3  C   UNL     1       1.166  -2.205   1.224  1.00  0.00     0.143 A 
ATOM      4  N   UNL     1       0.381  -3.005   1.914  1.00  0.00    -0.214 NA
ATOM      5  N   UNL     1       0.694  -0.928   1.329  1.00  0.00    -0.262 N 
ATOM      6  N   UNL     1      -0.400  -0.872   2.112  1.00  0.00    -0.158 NA
ATOM      7  H   UNL     1       1.075  -0.081   0.925  1.00  0.00     0.192 HD
BRANCH   3   8
ATOM      8  C   UNL     1       2.371  -2.561   0.421  1.00  0.00     0.190 C 
BRANCH   8   9
ATOM      9  N   UNL     1       3.498  -1.628   0.515  1.00  0.00    -0.378 N 
ATOM     10  H   UNL     1       3.873  -1.577   1.462  1.00  0.00     0.161 HD
BRANCH   9  11
ATOM     11  C   UNL     1       3.502  -0.412  -0.166  1.00  0.00     0.035 A 
ATOM     12  C   UNL     1       3.634   2.090  -1.494  1.00  0.00     0.119 A 
ATOM     13  C   UNL     1       4.291   1.903  -0.283  1.00  0.00     0.048 A 
ATOM     14  C   UNL     1       2.930   1.023  -2.050  1.00  0.00     0.048 A 
ATOM     15  C   UNL     1       4.235   0.659   0.364  1.00  0.00     0.029 A 
ATOM     16  C   UNL     1       2.876  -0.217  -1.400  1.00  0.00     0.029 A 
BRANCH  12  17
ATOM     17  O   UNL     1       3.605   3.238  -2.226  1.00  0.00    -0.497 OA
ATOM     18  C   UNL     1       4.447   4.299  -1.789  1.00  0.00     0.278 C 
ENDBRANCH  12  17
ENDBRANCH   9  11
ENDBRANCH   8   9
ENDBRANCH   3   8
ENDBRANCH   1   2
BRANCH   1  19
ATOM     19  C   UNL     1      -3.028  -2.436   2.546  1.00  0.00     0.227 C 
ATOM     20  N   UNL     1      -3.382  -1.108   2.384  1.00  0.00    -0.356 N 
ATOM     21  O   UNL     1      -3.737  -3.372   2.179  1.00  0.00    -0.275 OA
ATOM     22  H   UNL     1      -2.633  -0.434   2.500  1.00  0.00     0.163 HD
BRANCH  20  23
ATOM     23  C   UNL     1      -4.528  -0.713   1.580  1.00  0.00     0.117 C 
BRANCH  23  24
ATOM     24  C   UNL     1      -4.177  -0.557   0.096  1.00  0.00     0.037 C 
BRANCH  24  25
ATOM     25  C   UNL     1      -3.232   0.633  -0.147  1.00  0.00     0.085 C 
BRANCH  25  26
ATOM     26  N   UNL     1      -3.004   0.922  -1.570  1.00  0.00    -0.309 NA
ATOM     27  C   UNL     1      -2.266   2.181  -1.704  1.00  0.00     0.104 C 
ATOM     28  C   UNL     1      -2.274  -0.157  -2.237  1.00  0.00     0.104 C 
ENDBRANCH  25  26
ENDBRANCH  24  25
ENDBRANCH  23  24
ENDBRANCH  20  23
ENDBRANCH   1  19
TORSDOF 10
