REMARK SMILES COc1ccc(NC2(C(=O)NCCSc3n[nH]c(C)n3)CCCCC2)cc1
REMARK SMILES IDX 9 1 10 2 11 3 8 5 21 6 25 7 22 8 24 9 23 10 7 11 6 13 3 14
REMARK SMILES IDX 4 15 27 16 5 17 26 18 2 19 1 20 12 21 13 22 14 23 15 24
REMARK SMILES IDX 16 25 20 26 17 27 18 28 19 30
REMARK H PARENT 11 4 7 12 17 29
ROOT
ATOM      1  C   UNL     1      -0.316   0.510  -0.935  1.00  0.00     0.245 C 
ATOM      2  O   UNL     1      -0.152   1.483  -1.678  1.00  0.00    -0.272 OA
ATOM      3  N   UNL     1      -1.576   0.031  -0.659  1.00  0.00    -0.353 N 
ATOM      4  H   UNL     1      -1.706  -0.646   0.077  1.00  0.00     0.163 HD
ENDROOT
BRANCH   1   5
ATOM      5  C   UNL     1       0.927  -0.265  -0.320  1.00  0.00     0.116 C 
ATOM      6  C   UNL     1       1.122  -1.549  -1.153  1.00  0.00     0.038 C 
ATOM      7  C   UNL     1       0.715  -0.533   1.189  1.00  0.00     0.038 C 
ATOM      8  C   UNL     1       0.116  -2.660  -0.849  1.00  0.00     0.003 C 
ATOM      9  C   UNL     1       0.677  -2.019   1.557  1.00  0.00     0.003 C 
ATOM     10  C   UNL     1      -0.209  -2.839   0.633  1.00  0.00     0.000 C 
BRANCH   5  11
ATOM     11  N   UNL     1       2.068   0.670  -0.516  1.00  0.00    -0.371 N 
ATOM     12  H   UNL     1       1.832   1.358  -1.241  1.00  0.00     0.161 HD
BRANCH  11  13
ATOM     13  C   UNL     1       3.425   0.477  -0.366  1.00  0.00     0.035 A 
ATOM     14  C   UNL     1       6.247   0.310  -0.031  1.00  0.00     0.119 A 
ATOM     15  C   UNL     1       5.686   1.367  -0.738  1.00  0.00     0.048 A 
ATOM     16  C   UNL     1       5.401  -0.648   0.521  1.00  0.00     0.048 A 
ATOM     17  C   UNL     1       4.294   1.448  -0.889  1.00  0.00     0.029 A 
ATOM     18  C   UNL     1       4.010  -0.556   0.363  1.00  0.00     0.029 A 
BRANCH  14  19
ATOM     19  O   UNL     1       7.579   0.106   0.199  1.00  0.00    -0.497 OA
ATOM     20  C   UNL     1       8.478   1.057  -0.356  1.00  0.00     0.278 C 
ENDBRANCH  14  19
ENDBRANCH  11  13
ENDBRANCH   5  11
ENDBRANCH   1   5
BRANCH   3  21
ATOM     21  C   UNL     1      -2.775   0.687  -1.160  1.00  0.00     0.127 C 
BRANCH  21  22
ATOM     22  C   UNL     1      -3.106   1.959  -0.377  1.00  0.00     0.099 C 
BRANCH  22  23
ATOM     23  S   UNL     1      -4.715   2.648  -0.861  1.00  0.00    -0.083 SA
BRANCH  23  24
ATOM     24  C   UNL     1      -5.827   1.640   0.024  1.00  0.00     0.208 A 
ATOM     25  N   UNL     1      -5.454   0.585   0.757  1.00  0.00    -0.147 NA
ATOM     26  N   UNL     1      -7.175   1.877   0.013  1.00  0.00    -0.207 NA
ATOM     27  N   UNL     1      -6.634   0.159   1.234  1.00  0.00    -0.262 N 
ATOM     28  C   UNL     1      -7.664   0.938   0.792  1.00  0.00     0.122 A 
ATOM     29  H   UNL     1      -6.664  -0.649   1.846  1.00  0.00     0.192 HD
ATOM     30  C   UNL     1      -9.077   0.711   1.163  1.00  0.00     0.089 C 
ENDBRANCH  23  24
ENDBRANCH  22  23
ENDBRANCH  21  22
ENDBRANCH   3  21
TORSDOF 8
