REMARK SMILES CC(C)Oc1ccc(CNC(=O)Nc2ccc(-c3n[nH]c(C4CC4)n3)cc2)cc1
REMARK SMILES IDX 9 1 8 2 5 3 6 4 29 5 7 6 28 7 4 8 2 9 1 10 3 11 10 12 11 13
REMARK SMILES IDX 13 14 12 16 14 18 15 19 27 20 16 21 26 22 17 23 18 24 19 25
REMARK SMILES IDX 25 26 20 27 21 28 22 30 23 31 24 32
REMARK H PARENT 10 15 13 17 20 29
ROOT
ATOM      1  C   UNL     1      -2.789   3.308   1.359  1.00  0.00     0.153 C 
ENDROOT
BRANCH   1   2
ATOM      2  C   UNL     1      -3.868   2.298   1.063  1.00  0.00    -0.028 A 
ATOM      3  C   UNL     1      -5.846   0.365   0.510  1.00  0.00     0.119 A 
ATOM      4  C   UNL     1      -4.874   0.668  -0.442  1.00  0.00     0.047 A 
ATOM      5  C   UNL     1      -5.817   1.024   1.742  1.00  0.00     0.047 A 
ATOM      6  C   UNL     1      -3.893   1.626  -0.167  1.00  0.00     0.009 A 
ATOM      7  C   UNL     1      -4.838   1.981   2.021  1.00  0.00     0.009 A 
BRANCH   3   8
ATOM      8  O   UNL     1      -6.855  -0.547   0.381  1.00  0.00    -0.491 OA
BRANCH   8   9
ATOM      9  C   UNL     1      -7.079  -1.165  -0.890  1.00  0.00     0.167 C 
ATOM     10  C   UNL     1      -8.567  -1.504  -0.955  1.00  0.00     0.052 C 
ATOM     11  C   UNL     1      -6.250  -2.441  -1.001  1.00  0.00     0.052 C 
ENDBRANCH   8   9
ENDBRANCH   3   8
ENDBRANCH   1   2
BRANCH   1  12
ATOM     12  N   UNL     1      -1.568   2.654   1.779  1.00  0.00    -0.334 N 
ATOM     13  C   UNL     1      -0.558   2.402   0.871  1.00  0.00     0.319 C 
ATOM     14  N   UNL     1       0.468   1.705   1.472  1.00  0.00    -0.308 N 
ATOM     15  H   UNL     1      -1.677   1.968   2.510  1.00  0.00     0.165 HD
ATOM     16  O   UNL     1      -0.602   2.784  -0.291  1.00  0.00    -0.248 OA
ATOM     17  H   UNL     1       0.426   1.658   2.478  1.00  0.00     0.171 HD
BRANCH  14  18
ATOM     18  C   UNL     1       1.637   1.199   0.869  1.00  0.00     0.042 A 
ATOM     19  C   UNL     1       2.601   0.636   1.713  1.00  0.00     0.027 A 
ATOM     20  C   UNL     1       1.872   1.213  -0.506  1.00  0.00     0.027 A 
ATOM     21  C   UNL     1       3.786   0.105   1.189  1.00  0.00     0.014 A 
ATOM     22  C   UNL     1       3.059   0.681  -1.030  1.00  0.00     0.014 A 
ATOM     23  C   UNL     1       4.029   0.122  -0.189  1.00  0.00     0.021 A 
BRANCH  23  24
ATOM     24  C   UNL     1       5.267  -0.434  -0.728  1.00  0.00     0.181 A 
ATOM     25  N   UNL     1       5.575  -0.464  -2.036  1.00  0.00    -0.153 NA
ATOM     26  N   UNL     1       6.239  -0.986   0.083  1.00  0.00    -0.212 NA
ATOM     27  N   UNL     1       6.779  -1.052  -2.025  1.00  0.00    -0.262 N 
ATOM     28  C   UNL     1       7.172  -1.362  -0.760  1.00  0.00     0.128 A 
ATOM     29  H   UNL     1       7.268  -1.209  -2.897  1.00  0.00     0.192 HD
BRANCH  28  30
ATOM     30  C   UNL     1       8.494  -2.047  -0.331  1.00  0.00     0.057 C 
ATOM     31  C   UNL     1       9.760  -1.813  -1.112  1.00  0.00     0.012 C 
ATOM     32  C   UNL     1       9.078  -3.151  -1.173  1.00  0.00     0.012 C 
ENDBRANCH  28  30
ENDBRANCH  23  24
ENDBRANCH  14  18
ENDBRANCH   1  12
TORSDOF 7
