REMARK SMILES O=C(CCN1C(=O)COc2ccccc21)NCCc1nnc2n1CCCCC2
REMARK SMILES IDX 17 1 16 2 2 3 1 4 3 6 4 7 5 8 6 9 15 10 8 11 14 12 10 13
REMARK SMILES IDX 9 14 13 15 11 16 12 17 7 18 18 19 19 20 20 21 23 22 21 23
REMARK SMILES IDX 22 24 24 25 28 27 27 28 26 29 25 30
REMARK H PARENT 16 5
REMARK Flexibility Score:  144.900
ROOT
ATOM      1  C   UNL     1      -1.083   3.224  -1.228  1.00  0.00     0.124 C 
ENDROOT
BRANCH   1   2
ATOM      2  N   UNL     1      -0.002   2.521  -1.898  1.00  0.00    -0.356 N 
ATOM      3  C   UNL     1       1.213   2.331  -1.281  1.00  0.00     0.221 C 
ATOM      4  O   UNL     1       1.542   2.884  -0.236  1.00  0.00    -0.275 OA
ATOM      5  H   UNL     1      -0.308   1.831  -2.579  1.00  0.00     0.163 HD
BRANCH   3   6
ATOM      6  C   UNL     1       2.116   1.351  -1.993  1.00  0.00     0.122 C 
BRANCH   6   7
ATOM      7  C   UNL     1       1.888  -0.074  -1.490  1.00  0.00     0.136 C 
BRANCH   7   8
ATOM      8  N   UNL     1       2.480  -0.318  -0.175  1.00  0.00    -0.306 N 
ATOM      9  C   UNL     1       1.668  -0.239   0.954  1.00  0.00     0.265 C 
ATOM     10  C   UNL     1       3.862  -0.639  -0.022  1.00  0.00     0.086 A 
ATOM     11  C   UNL     1       2.429  -0.235   2.273  1.00  0.00     0.330 C 
ATOM     12  C   UNL     1       4.760  -0.649  -1.100  1.00  0.00     0.030 A 
ATOM     13  C   UNL     1       4.349  -1.010   1.242  1.00  0.00     0.143 A 
ATOM     14  O   UNL     1       3.568  -1.070   2.366  1.00  0.00    -0.482 OA
ATOM     15  C   UNL     1       6.097  -1.024  -0.918  1.00  0.00     0.002 A 
ATOM     16  C   UNL     1       5.676  -1.403   1.419  1.00  0.00     0.049 A 
ATOM     17  C   UNL     1       6.554  -1.405   0.339  1.00  0.00     0.004 A 
ATOM     18  O   UNL     1       0.443  -0.118   0.924  1.00  0.00    -0.271 OA
ENDBRANCH   7   8
ENDBRANCH   6   7
ENDBRANCH   3   6
ENDBRANCH   1   2
BRANCH   1  19
ATOM     19  C   UNL     1      -1.783   2.347  -0.184  1.00  0.00     0.099 C 
BRANCH  19  20
ATOM     20  C   UNL     1      -2.334   1.095  -0.783  1.00  0.00     0.134 A 
ATOM     21  N   UNL     1      -2.511   0.847  -2.068  1.00  0.00    -0.135 NA
ATOM     22  N   UNL     1      -2.717  -0.009  -0.073  1.00  0.00    -0.315 N 
ATOM     23  N   UNL     1      -3.014  -0.424  -2.201  1.00  0.00    -0.135 NA
ATOM     24  C   UNL     1      -3.146  -0.928  -0.995  1.00  0.00     0.132 A 
BRANCH  22  25
ATOM     25  C   UNL     1      -2.725  -0.238   1.351  1.00  0.00     0.125 CG0
ATOM     26  G   UNL     1      -4.117  -0.463   1.957  1.00  0.00     0.000 G0
ENDBRANCH  22  25
BRANCH  24  27
ATOM     27  C   UNL     1      -3.703  -2.244  -0.594  1.00  0.00     0.077 C 
BRANCH  27  28
ATOM     28  C   UNL     1      -5.034  -2.120   0.156  1.00  0.00     0.008 C 
BRANCH  28  29
ATOM     29  C   UNL     1      -5.249  -0.855   1.000  1.00  0.00     0.002 C 
BRANCH  29  30
ATOM     30  C   UNL     1      -4.117  -0.463   1.957  1.00  0.00     0.022 CG0
ATOM     31  G   UNL     1      -2.725  -0.238   1.351  1.00  0.00     0.000 G0
ENDBRANCH  29  30
ENDBRANCH  28  29
ENDBRANCH  27  28
ENDBRANCH  24  27
ENDBRANCH  19  20
ENDBRANCH   1  19
TORSDOF 6
