REMARK SMILES Cc1cccc(-n2nc(C(=O)NCCOc3ccccc3)nc2-c2ccccc2)c1
REMARK SMILES IDX 10 1 11 2 12 3 9 5 7 6 8 7 23 8 22 9 6 10 2 11 3 12 30 13
REMARK SMILES IDX 4 14 5 15 1 16 24 17 25 18 29 19 26 20 28 21 27 22 13 23
REMARK SMILES IDX 14 24 15 25 16 26 17 27 21 28 18 29 20 30 19 31
REMARK H PARENT 12 4
ROOT
ATOM      1  C   UNL     1       1.507  -0.440   0.895  1.00  0.00     0.291 C 
ATOM      2  O   UNL     1       2.199  -0.022   1.819  1.00  0.00    -0.266 OA
ATOM      3  N   UNL     1       2.043  -1.069  -0.214  1.00  0.00    -0.346 N 
ATOM      4  H   UNL     1       1.377  -1.407  -0.903  1.00  0.00     0.164 HD
ENDROOT
BRANCH   1   5
ATOM      5  C   UNL     1       0.033  -0.323   0.847  1.00  0.00     0.240 A 
ATOM      6  N   UNL     1      -1.976  -0.571   0.224  1.00  0.00    -0.212 N 
ATOM      7  N   UNL     1      -0.693  -0.805  -0.178  1.00  0.00    -0.140 NA
ATOM      8  C   UNL     1      -1.957   0.214   1.376  1.00  0.00     0.164 A 
ATOM      9  N   UNL     1      -0.715   0.293   1.815  1.00  0.00    -0.202 NA
BRANCH   6  10
ATOM     10  C   UNL     1      -3.056  -1.144  -0.511  1.00  0.00     0.067 A 
ATOM     11  C   UNL     1      -5.382  -1.847  -0.715  1.00  0.00    -0.049 A 
ATOM     12  C   UNL     1      -5.129  -2.289  -2.017  1.00  0.00     0.003 A 
ATOM     13  C   UNL     1      -4.342  -1.272   0.033  1.00  0.00     0.031 A 
ATOM     14  C   UNL     1      -3.848  -2.192  -2.556  1.00  0.00     0.003 A 
ATOM     15  C   UNL     1      -2.814  -1.631  -1.806  1.00  0.00     0.028 A 
ATOM     16  C   UNL     1      -6.764  -1.940  -0.136  1.00  0.00     0.044 C 
ENDBRANCH   6  10
BRANCH   8  17
ATOM     17  C   UNL     1      -3.079   0.909   2.006  1.00  0.00     0.019 A 
ATOM     18  C   UNL     1      -3.292   0.769   3.384  1.00  0.00     0.012 A 
ATOM     19  C   UNL     1      -3.920   1.758   1.271  1.00  0.00     0.012 A 
ATOM     20  C   UNL     1      -4.351   1.431   4.009  1.00  0.00     0.001 A 
ATOM     21  C   UNL     1      -4.980   2.418   1.898  1.00  0.00     0.001 A 
ATOM     22  C   UNL     1      -5.197   2.250   3.264  1.00  0.00     0.000 A 
ENDBRANCH   8  17
ENDBRANCH   1   5
BRANCH   3  23
ATOM     23  C   UNL     1       3.454  -1.355  -0.349  1.00  0.00     0.157 C 
BRANCH  23  24
ATOM     24  C   UNL     1       4.313  -0.109  -0.576  1.00  0.00     0.250 C 
BRANCH  24  25
ATOM     25  O   UNL     1       5.629  -0.537  -0.935  1.00  0.00    -0.492 OA
BRANCH  25  26
ATOM     26  C   UNL     1       6.545   0.441  -1.208  1.00  0.00     0.119 A 
ATOM     27  C   UNL     1       7.792  -0.029  -1.629  1.00  0.00     0.046 A 
ATOM     28  C   UNL     1       6.338   1.817  -1.096  1.00  0.00     0.046 A 
ATOM     29  C   UNL     1       8.821   0.862  -1.942  1.00  0.00     0.004 A 
ATOM     30  C   UNL     1       7.367   2.710  -1.409  1.00  0.00     0.004 A 
ATOM     31  C   UNL     1       8.607   2.234  -1.832  1.00  0.00     0.000 A 
ENDBRANCH  25  26
ENDBRANCH  24  25
ENDBRANCH  23  24
ENDBRANCH   3  23
TORSDOF 7
