REMARK SMILES COc1ccc(-n2nc(C(=O)NC3CCCCC3)nc2-c2ccc(C)cc2)cc1
REMARK SMILES IDX 3 1 4 2 5 3 6 4 28 5 29 6 2 7 1 8 7 9 8 10 20 11 9 12 19 13
REMARK SMILES IDX 21 14 22 15 27 16 23 17 26 18 24 19 25 20 10 21 12 22 11 23
REMARK SMILES IDX 13 25 14 26 18 27 15 28 17 29 16 30
REMARK H PARENT 12 24
ROOT
ATOM      1  C   UNL     1      -4.861   2.644  -2.003  1.00  0.00     0.119 A 
ATOM      2  C   UNL     1      -3.810   2.568  -2.915  1.00  0.00     0.048 A 
ATOM      3  C   UNL     1      -2.588   1.993  -2.553  1.00  0.00     0.032 A 
ATOM      4  C   UNL     1      -2.403   1.468  -1.264  1.00  0.00     0.067 A 
ATOM      5  C   UNL     1      -3.452   1.569  -0.342  1.00  0.00     0.032 A 
ATOM      6  C   UNL     1      -4.675   2.147  -0.714  1.00  0.00     0.048 A 
ENDROOT
BRANCH   1   7
ATOM      7  O   UNL     1      -6.000   3.226  -2.486  1.00  0.00    -0.497 OA
ATOM      8  C   UNL     1      -7.097   3.338  -1.588  1.00  0.00     0.278 C 
ENDBRANCH   1   7
BRANCH   4   9
ATOM      9  N   UNL     1      -1.142   0.889  -0.931  1.00  0.00    -0.212 N 
ATOM     10  N   UNL     1      -0.071   1.109  -1.737  1.00  0.00    -0.140 NA
ATOM     11  C   UNL     1      -0.744   0.098   0.148  1.00  0.00     0.164 A 
ATOM     12  C   UNL     1       0.951   0.599  -1.041  1.00  0.00     0.240 A 
ATOM     13  N   UNL     1       0.572  -0.022   0.131  1.00  0.00    -0.202 NA
BRANCH  11  14
ATOM     14  C   UNL     1      -1.597  -0.566   1.129  1.00  0.00     0.019 A 
ATOM     15  C   UNL     1      -1.398  -0.332   2.494  1.00  0.00     0.012 A 
ATOM     16  C   UNL     1      -2.581  -1.481   0.732  1.00  0.00     0.012 A 
ATOM     17  C   UNL     1      -2.200  -0.967   3.446  1.00  0.00     0.004 A 
ATOM     18  C   UNL     1      -3.383  -2.116   1.684  1.00  0.00     0.004 A 
ATOM     19  C   UNL     1      -3.207  -1.853   3.047  1.00  0.00    -0.051 A 
ATOM     20  C   UNL     1      -4.047  -2.548   4.079  1.00  0.00     0.044 C 
ENDBRANCH  11  14
BRANCH  12  21
ATOM     21  C   UNL     1       2.363   0.649  -1.477  1.00  0.00     0.291 C 
ATOM     22  N   UNL     1       3.220   0.037  -0.578  1.00  0.00    -0.347 N 
ATOM     23  O   UNL     1       2.745   1.164  -2.524  1.00  0.00    -0.266 OA
ATOM     24  H   UNL     1       2.769  -0.464   0.183  1.00  0.00     0.164 HD
BRANCH  22  25
ATOM     25  C   UNL     1       4.623  -0.192  -0.868  1.00  0.00     0.082 C 
ATOM     26  C   UNL     1       5.417  -0.334   0.435  1.00  0.00     0.025 C 
ATOM     27  C   UNL     1       4.800  -1.431  -1.756  1.00  0.00     0.025 C 
ATOM     28  C   UNL     1       6.890  -0.632   0.169  1.00  0.00     0.002 C 
ATOM     29  C   UNL     1       6.274  -1.730  -2.019  1.00  0.00     0.002 C 
ATOM     30  C   UNL     1       7.063  -1.860  -0.719  1.00  0.00     0.000 C 
ENDBRANCH  22  25
ENDBRANCH  12  21
ENDBRANCH   4   9
TORSDOF 5
