REMARK SMILES CC(=O)Nc1ccccc1OCc1noc(C(=O)NCCc2ccccc2)n1
REMARK SMILES IDX 13 1 14 2 15 3 16 4 28 5 12 6 11 7 10 8 5 9 6 10 7 11 9 12
REMARK SMILES IDX 8 13 4 14 2 15 1 16 3 17 17 19 19 20 18 21 20 23 21 24 22 25
REMARK SMILES IDX 23 26 27 27 24 28 26 29 25 30
REMARK H PARENT 4 18 19 22
ROOT
ATOM      1  C   UNL     1       1.587  -2.563  -0.748  1.00  0.00     0.209 A 
ATOM      2  N   UNL     1       1.537  -2.729  -2.077  1.00  0.00    -0.058 NA
ATOM      3  O   UNL     1       0.217  -2.395  -2.394  1.00  0.00    -0.328 OA
ATOM      4  C   UNL     1      -0.392  -2.072  -1.218  1.00  0.00     0.316 A 
ATOM      5  N   UNL     1       0.402  -2.172  -0.167  1.00  0.00    -0.184 NA
ENDROOT
BRANCH   1   6
ATOM      6  C   UNL     1       2.832  -2.802   0.038  1.00  0.00     0.310 C 
BRANCH   6   7
ATOM      7  O   UNL     1       3.791  -1.741  -0.072  1.00  0.00    -0.483 OA
BRANCH   7   8
ATOM      8  C   UNL     1       3.630  -0.612   0.698  1.00  0.00     0.143 A 
ATOM      9  C   UNL     1       4.561   0.422   0.444  1.00  0.00     0.083 A 
ATOM     10  C   UNL     1       4.495   1.605   1.181  1.00  0.00     0.030 A 
ATOM     11  C   UNL     1       3.515   1.771   2.162  1.00  0.00     0.002 A 
ATOM     12  C   UNL     1       2.653  -0.435   1.681  1.00  0.00     0.049 A 
ATOM     13  C   UNL     1       2.597   0.755   2.410  1.00  0.00     0.004 A 
BRANCH   9  14
ATOM     14  N   UNL     1       5.517   0.187  -0.571  1.00  0.00    -0.323 N 
ATOM     15  C   UNL     1       6.522   1.023  -1.008  1.00  0.00     0.221 C 
ATOM     16  C   UNL     1       7.329   0.425  -2.135  1.00  0.00     0.114 C 
ATOM     17  O   UNL     1       6.779   2.146  -0.589  1.00  0.00    -0.275 OA
ATOM     18  H   UNL     1       5.412  -0.716  -1.024  1.00  0.00     0.170 HD
ENDBRANCH   9  14
ENDBRANCH   7   8
ENDBRANCH   6   7
ENDBRANCH   1   6
BRANCH   4  19
ATOM     19  C   UNL     1      -1.783  -1.664  -1.219  1.00  0.00     0.309 C 
ATOM     20  N   UNL     1      -2.271  -1.350   0.039  1.00  0.00    -0.347 N 
ATOM     21  O   UNL     1      -2.485  -1.587  -2.225  1.00  0.00    -0.264 OA
ATOM     22  H   UNL     1      -1.619  -1.385   0.816  1.00  0.00     0.163 HD
BRANCH  20  23
ATOM     23  C   UNL     1      -3.622  -0.870   0.251  1.00  0.00     0.121 C 
BRANCH  23  24
ATOM     24  C   UNL     1      -3.762   0.619  -0.071  1.00  0.00     0.057 C 
BRANCH  24  25
ATOM     25  C   UNL     1      -5.167   1.109   0.175  1.00  0.00    -0.046 A 
ATOM     26  C   UNL     1      -6.141   0.988  -0.825  1.00  0.00     0.004 A 
ATOM     27  C   UNL     1      -5.525   1.662   1.412  1.00  0.00     0.004 A 
ATOM     28  C   UNL     1      -7.448   1.420  -0.595  1.00  0.00     0.000 A 
ATOM     29  C   UNL     1      -6.833   2.094   1.640  1.00  0.00     0.000 A 
ATOM     30  C   UNL     1      -7.793   1.973   0.637  1.00  0.00     0.000 A 
ENDBRANCH  24  25
ENDBRANCH  23  24
ENDBRANCH  20  23
ENDBRANCH   4  19
TORSDOF 8
