REMARK SMILES CCOc1ccc(-n2c(Cc3ccccc3)nnc2SCC(=O)NC)cc1
REMARK SMILES IDX 8 1 9 2 17 3 18 4 19 5 7 6 4 7 5 8 27 9 6 10 26 11 3 12 2 13
REMARK SMILES IDX 1 14 10 15 11 16 12 17 16 18 13 19 15 20 14 21 20 22 21 23
REMARK SMILES IDX 22 24 24 25 23 26 25 27
REMARK H PARENT 24 28
ROOT
ATOM      1  N   UNL     1      -0.334   0.743  -1.501  1.00  0.00    -0.274 N 
ATOM      2  C   UNL     1      -0.934  -0.079  -2.452  1.00  0.00     0.142 A 
ATOM      3  N   UNL     1      -2.083   0.449  -2.829  1.00  0.00    -0.134 NA
ATOM      4  N   UNL     1      -2.285   1.589  -2.109  1.00  0.00    -0.123 NA
ATOM      5  C   UNL     1      -1.266   1.742  -1.293  1.00  0.00     0.196 A 
ENDROOT
BRANCH   1   6
ATOM      6  C   UNL     1       0.939   0.576  -0.902  1.00  0.00     0.050 A 
ATOM      7  C   UNL     1       3.469   0.240   0.270  1.00  0.00     0.119 A 
ATOM      8  C   UNL     1       2.356   0.514   1.066  1.00  0.00     0.048 A 
ATOM      9  C   UNL     1       3.309   0.145  -1.115  1.00  0.00     0.048 A 
ATOM     10  C   UNL     1       1.093   0.685   0.484  1.00  0.00     0.030 A 
ATOM     11  C   UNL     1       2.053   0.307  -1.705  1.00  0.00     0.030 A 
BRANCH   7  12
ATOM     12  O   UNL     1       4.753   0.062   0.701  1.00  0.00    -0.494 OA
BRANCH  12  13
ATOM     13  C   UNL     1       5.012   0.015   2.104  1.00  0.00     0.226 C 
ATOM     14  C   UNL     1       5.287   1.407   2.650  1.00  0.00     0.049 C 
ENDBRANCH  12  13
ENDBRANCH   7  12
ENDBRANCH   1   6
BRANCH   2  15
ATOM     15  C   UNL     1      -0.456  -1.435  -2.866  1.00  0.00     0.113 C 
BRANCH  15  16
ATOM     16  C   UNL     1      -0.566  -2.461  -1.759  1.00  0.00    -0.040 A 
ATOM     17  C   UNL     1      -1.825  -2.832  -1.259  1.00  0.00     0.004 A 
ATOM     18  C   UNL     1       0.582  -3.050  -1.207  1.00  0.00     0.004 A 
ATOM     19  C   UNL     1      -1.932  -3.763  -0.223  1.00  0.00     0.000 A 
ATOM     20  C   UNL     1       0.471  -3.981  -0.171  1.00  0.00     0.000 A 
ATOM     21  C   UNL     1      -0.784  -4.335   0.321  1.00  0.00     0.000 A 
ENDBRANCH  15  16
ENDBRANCH   2  15
BRANCH   5  22
ATOM     22  S   UNL     1      -1.071   3.104  -0.236  1.00  0.00    -0.076 SA
BRANCH  22  23
ATOM     23  C   UNL     1      -2.738   3.824  -0.279  1.00  0.00     0.178 C 
BRANCH  23  24
ATOM     24  C   UNL     1      -3.727   2.944   0.468  1.00  0.00     0.230 C 
ATOM     25  N   UNL     1      -4.465   2.102  -0.341  1.00  0.00    -0.358 N 
ATOM     26  O   UNL     1      -3.858   2.989   1.690  1.00  0.00    -0.274 OA
ATOM     27  C   UNL     1      -5.369   1.136   0.232  1.00  0.00     0.142 C 
ATOM     28  H   UNL     1      -4.052   1.870  -1.245  1.00  0.00     0.163 HD
ENDBRANCH  23  24
ENDBRANCH  22  23
ENDBRANCH   5  22
TORSDOF 8
