REMARK SMILES O=C(NCCOc1ccccc1)c1nc(Cc2ccccc2)n(-c2ccccc2)n1
REMARK SMILES IDX 1 1 2 2 3 3 13 5 14 6 30 7 15 8 23 9 16 10 17 11 18 12 22 13
REMARK SMILES IDX 19 14 21 15 20 16 24 17 25 18 29 19 26 20 28 21 27 22 4 23
REMARK SMILES IDX 5 24 6 25 7 26 8 27 12 28 9 29 11 30 10 31
REMARK H PARENT 3 4
ROOT
ATOM      1  O   UNL     1       2.269   0.923   0.287  1.00  0.00    -0.266 OA
ATOM      2  C   UNL     1       1.547  -0.019   0.604  1.00  0.00     0.291 C 
ATOM      3  N   UNL     1       2.021  -1.313   0.720  1.00  0.00    -0.346 N 
ATOM      4  H   UNL     1       1.343  -2.031   0.959  1.00  0.00     0.164 HD
ENDROOT
BRANCH   2   5
ATOM      5  C   UNL     1       0.100   0.091   0.886  1.00  0.00     0.239 A 
ATOM      6  N   UNL     1      -0.669  -1.004   1.209  1.00  0.00    -0.207 NA
ATOM      7  N   UNL     1      -0.592   1.232   0.828  1.00  0.00    -0.140 NA
ATOM      8  C   UNL     1      -1.888  -0.513   1.354  1.00  0.00     0.137 A 
ATOM      9  N   UNL     1      -1.849   0.873   1.204  1.00  0.00    -0.217 N 
BRANCH   8  10
ATOM     10  C   UNL     1      -3.094  -1.378   1.540  1.00  0.00     0.113 C 
BRANCH  10  11
ATOM     11  C   UNL     1      -4.095  -1.333   0.405  1.00  0.00    -0.040 A 
ATOM     12  C   UNL     1      -3.681  -1.390  -0.935  1.00  0.00     0.004 A 
ATOM     13  C   UNL     1      -5.470  -1.296   0.682  1.00  0.00     0.004 A 
ATOM     14  C   UNL     1      -4.617  -1.369  -1.971  1.00  0.00     0.000 A 
ATOM     15  C   UNL     1      -6.404  -1.276  -0.356  1.00  0.00     0.000 A 
ATOM     16  C   UNL     1      -5.977  -1.308  -1.681  1.00  0.00     0.000 A 
ENDBRANCH  10  11
ENDBRANCH   8  10
BRANCH   9  17
ATOM     17  C   UNL     1      -2.833   1.893   1.371  1.00  0.00     0.067 A 
ATOM     18  C   UNL     1      -2.565   3.176   0.857  1.00  0.00     0.028 A 
ATOM     19  C   UNL     1      -4.035   1.688   2.054  1.00  0.00     0.028 A 
ATOM     20  C   UNL     1      -3.493   4.211   0.990  1.00  0.00     0.002 A 
ATOM     21  C   UNL     1      -4.963   2.728   2.186  1.00  0.00     0.002 A 
ATOM     22  C   UNL     1      -4.695   3.985   1.650  1.00  0.00     0.000 A 
ENDBRANCH   9  17
ENDBRANCH   2   5
BRANCH   3  23
ATOM     23  C   UNL     1       3.404  -1.652   0.467  1.00  0.00     0.157 C 
BRANCH  23  24
ATOM     24  C   UNL     1       3.752  -1.671  -1.023  1.00  0.00     0.250 C 
BRANCH  24  25
ATOM     25  O   UNL     1       5.108  -2.070  -1.227  1.00  0.00    -0.492 OA
BRANCH  25  26
ATOM     26  C   UNL     1       6.076  -1.104  -1.211  1.00  0.00     0.119 A 
ATOM     27  C   UNL     1       5.894   0.248  -0.919  1.00  0.00     0.046 A 
ATOM     28  C   UNL     1       7.360  -1.568  -1.512  1.00  0.00     0.046 A 
ATOM     29  C   UNL     1       6.985   1.124  -0.935  1.00  0.00     0.004 A 
ATOM     30  C   UNL     1       8.449  -0.695  -1.529  1.00  0.00     0.004 A 
ATOM     31  C   UNL     1       8.261   0.654  -1.241  1.00  0.00     0.000 A 
ENDBRANCH  25  26
ENDBRANCH  24  25
ENDBRANCH  23  24
ENDBRANCH   3  23
TORSDOF 8
