REMARK SMILES CC(=O)Nc1cccc(OCc2noc(C(=O)NCCc3ccccc3)n2)c1
REMARK SMILES IDX 12 1 13 2 14 3 15 4 27 5 11 6 10 7 9 8 5 9 6 10 28 11 7 12
REMARK SMILES IDX 8 13 4 14 2 15 1 16 3 17 16 19 18 20 17 21 19 23 20 24 21 25
REMARK SMILES IDX 22 26 26 27 23 28 25 29 24 30
REMARK H PARENT 4 18 18 22
ROOT
ATOM      1  C   UNL     1      -0.971   0.550  -1.777  1.00  0.00     0.209 A 
ATOM      2  N   UNL     1      -0.778   1.254  -2.902  1.00  0.00    -0.058 NA
ATOM      3  O   UNL     1       0.614   1.276  -3.034  1.00  0.00    -0.328 OA
ATOM      4  C   UNL     1       1.113   0.573  -1.978  1.00  0.00     0.316 A 
ATOM      5  N   UNL     1       0.182   0.097  -1.173  1.00  0.00    -0.184 NA
ENDROOT
BRANCH   1   6
ATOM      6  C   UNL     1      -2.331   0.267  -1.231  1.00  0.00     0.310 C 
BRANCH   6   7
ATOM      7  O   UNL     1      -2.700   1.241  -0.246  1.00  0.00    -0.485 OA
BRANCH   7   8
ATOM      8  C   UNL     1      -3.962   1.149   0.276  1.00  0.00     0.122 A 
ATOM      9  C   UNL     1      -6.139   0.131   0.643  1.00  0.00     0.044 A 
ATOM     10  C   UNL     1      -6.492   1.212   1.460  1.00  0.00     0.026 A 
ATOM     11  C   UNL     1      -4.869   0.108   0.054  1.00  0.00     0.072 A 
ATOM     12  C   UNL     1      -5.588   2.248   1.692  1.00  0.00     0.006 A 
ATOM     13  C   UNL     1      -4.326   2.212   1.103  1.00  0.00     0.046 A 
BRANCH   9  14
ATOM     14  N   UNL     1      -7.108  -0.879   0.463  1.00  0.00    -0.326 N 
ATOM     15  C   UNL     1      -6.988  -2.042  -0.279  1.00  0.00     0.221 C 
ATOM     16  C   UNL     1      -8.247  -2.872  -0.231  1.00  0.00     0.114 C 
ATOM     17  O   UNL     1      -6.014  -2.410  -0.925  1.00  0.00    -0.275 OA
ATOM     18  H   UNL     1      -7.990  -0.735   0.940  1.00  0.00     0.169 HD
ENDBRANCH   9  14
ENDBRANCH   7   8
ENDBRANCH   6   7
ENDBRANCH   1   6
BRANCH   4  19
ATOM     19  C   UNL     1       2.545   0.409  -1.834  1.00  0.00     0.309 C 
ATOM     20  N   UNL     1       2.907  -0.348  -0.732  1.00  0.00    -0.347 N 
ATOM     21  O   UNL     1       3.382   0.883  -2.598  1.00  0.00    -0.264 OA
ATOM     22  H   UNL     1       2.161  -0.664  -0.119  1.00  0.00     0.163 HD
BRANCH  20  23
ATOM     23  C   UNL     1       4.289  -0.599  -0.377  1.00  0.00     0.121 C 
BRANCH  23  24
ATOM     24  C   UNL     1       4.898   0.562   0.412  1.00  0.00     0.057 C 
BRANCH  24  25
ATOM     25  C   UNL     1       6.329   0.281   0.799  1.00  0.00    -0.046 A 
ATOM     26  C   UNL     1       7.375   0.625  -0.067  1.00  0.00     0.004 A 
ATOM     27  C   UNL     1       6.629  -0.354   2.012  1.00  0.00     0.004 A 
ATOM     28  C   UNL     1       8.699   0.350   0.281  1.00  0.00     0.000 A 
ATOM     29  C   UNL     1       7.953  -0.629   2.357  1.00  0.00     0.000 A 
ATOM     30  C   UNL     1       8.987  -0.276   1.492  1.00  0.00     0.000 A 
ENDBRANCH  24  25
ENDBRANCH  23  24
ENDBRANCH  20  23
ENDBRANCH   4  19
TORSDOF 8
