REMARK SMILES CC(=O)Nc1ccccc1OCc1noc(C(=O)NCCc2ccc(O)cc2)n1
REMARK SMILES IDX 13 1 14 2 15 3 16 4 29 5 12 6 11 7 10 8 5 9 6 10 7 11 9 12
REMARK SMILES IDX 8 13 4 14 2 15 1 16 3 17 17 19 19 20 18 21 20 23 21 24 22 25
REMARK SMILES IDX 23 26 28 27 24 28 27 29 25 30 26 31
REMARK H PARENT 4 18 19 22 26 32
ROOT
ATOM      1  C   UNL     1      -1.796  -0.397   2.134  1.00  0.00     0.209 A 
ATOM      2  N   UNL     1      -1.476  -1.598   1.630  1.00  0.00    -0.058 NA
ATOM      3  O   UNL     1      -0.168  -1.418   1.180  1.00  0.00    -0.328 OA
ATOM      4  C   UNL     1       0.175  -0.126   1.475  1.00  0.00     0.316 A 
ATOM      5  N   UNL     1      -0.790   0.537   2.078  1.00  0.00    -0.184 NA
ENDROOT
BRANCH   1   6
ATOM      6  C   UNL     1      -3.132  -0.099   2.726  1.00  0.00     0.310 C 
BRANCH   6   7
ATOM      7  O   UNL     1      -4.210  -0.165   1.781  1.00  0.00    -0.483 OA
BRANCH   7   8
ATOM      8  C   UNL     1      -4.419   0.903   0.938  1.00  0.00     0.143 A 
ATOM      9  C   UNL     1      -5.475   0.737   0.013  1.00  0.00     0.083 A 
ATOM     10  C   UNL     1      -5.776   1.764  -0.884  1.00  0.00     0.030 A 
ATOM     11  C   UNL     1      -5.037   2.948  -0.870  1.00  0.00     0.002 A 
ATOM     12  C   UNL     1      -3.685   2.093   0.942  1.00  0.00     0.049 A 
ATOM     13  C   UNL     1      -3.995   3.111   0.038  1.00  0.00     0.004 A 
BRANCH   9  14
ATOM     14  N   UNL     1      -6.172  -0.493   0.051  1.00  0.00    -0.323 N 
ATOM     15  C   UNL     1      -7.234  -0.899  -0.728  1.00  0.00     0.221 C 
ATOM     16  C   UNL     1      -7.697  -2.293  -0.382  1.00  0.00     0.114 C 
ATOM     17  O   UNL     1      -7.804  -0.249  -1.596  1.00  0.00    -0.275 OA
ATOM     18  H   UNL     1      -5.818  -1.136   0.752  1.00  0.00     0.170 HD
ENDBRANCH   9  14
ENDBRANCH   7   8
ENDBRANCH   6   7
ENDBRANCH   1   6
BRANCH   4  19
ATOM     19  C   UNL     1       1.500   0.359   1.126  1.00  0.00     0.309 C 
ATOM     20  N   UNL     1       2.309  -0.561   0.468  1.00  0.00    -0.347 N 
ATOM     21  O   UNL     1       1.907   1.490   1.388  1.00  0.00    -0.264 OA
ATOM     22  H   UNL     1       1.990  -1.522   0.427  1.00  0.00     0.163 HD
BRANCH  20  23
ATOM     23  C   UNL     1       3.708  -0.280   0.202  1.00  0.00     0.121 C 
BRANCH  23  24
ATOM     24  C   UNL     1       4.267  -1.182  -0.898  1.00  0.00     0.057 C 
BRANCH  24  25
ATOM     25  C   UNL     1       5.729  -0.922  -1.154  1.00  0.00    -0.046 A 
ATOM     26  C   UNL     1       6.713  -1.667  -0.488  1.00  0.00     0.007 A 
ATOM     27  C   UNL     1       6.123   0.090  -2.041  1.00  0.00     0.007 A 
ATOM     28  C   UNL     1       8.069  -1.413  -0.713  1.00  0.00     0.046 A 
ATOM     29  C   UNL     1       7.477   0.343  -2.265  1.00  0.00     0.046 A 
ATOM     30  C   UNL     1       8.438  -0.408  -1.601  1.00  0.00     0.115 A 
BRANCH  30  31
ATOM     31  O   UNL     1       9.749  -0.126  -1.850  1.00  0.00    -0.508 OA
ATOM     32  H   UNL     1      10.301  -0.724  -1.320  1.00  0.00     0.293 HD
ENDBRANCH  30  31
ENDBRANCH  24  25
ENDBRANCH  23  24
ENDBRANCH  20  23
ENDBRANCH   4  19
TORSDOF 9
